3_14C
     RDKit          3D

 42 44  0  0  0  0  0  0  0  0999 V2000
   -1.3359    4.1640    0.7200 C   0  0  0  0  0  0  0  0  0  0  0  0
   -0.0197    4.3757    1.1011 C   0  0  0  0  0  0  0  0  0  0  0  0
    0.8797    3.3084    1.0942 C   0  0  0  0  0  0  0  0  0  0  0  0
    0.4999    2.0279    0.7159 C   0  0  0  0  0  0  0  0  0  0  0  0
   -0.8394    1.7965    0.3293 C   0  0  0  0  0  0  0  0  0  0  0  0
   -1.7443    2.8865    0.3370 C   0  0  0  0  0  0  0  0  0  0  0  0
    1.4339    1.0638    0.7369 N   0  0  0  0  0  0  0  0  0  0  0  0
    1.0967   -0.1898    0.3594 C   0  0  0  0  0  0  0  0  0  0  0  0
   -0.1955   -0.5161   -0.0332 C   0  0  0  0  0  0  0  0  0  0  0  0
   -1.1869    0.4740   -0.0436 C   0  0  0  0  0  0  0  0  0  0  0  0
   -2.5852    0.0879   -0.4764 C   0  0  0  0  0  0  0  0  0  0  0  0
   -2.9081    0.4687   -1.9052 C   0  0  0  0  0  0  0  0  0  0  0  0
   -2.0974    0.6241   -2.8074 O   0  0  0  0  0  0  0  0  0  0  0  0
   -4.2626    0.5684   -2.0529 O   0  0  0  0  0  0  0  0  0  0  0  0
    2.2104   -1.2181    0.3873 C   0  0  0  0  0  0  0  0  0  0  0  0
    2.5136   -1.7767   -1.0127 C   0  0  0  0  0  0  0  0  0  0  0  0
    3.6482   -2.7989   -0.9719 C   0  0  0  0  0  0  0  0  0  0  0  0
    3.3631   -3.9175    0.0263 C   0  0  0  0  0  0  0  0  0  0  0  0
    3.0633   -3.3683    1.4181 C   0  0  0  0  0  0  0  0  0  0  0  0
    1.9256   -2.3491    1.3891 C   0  0  0  0  0  0  0  0  0  0  0  0
   -2.0440    4.9885    0.7176 H   0  0  0  0  0  0  0  0  0  0  0  0
    0.3146    5.3652    1.4008 H   0  0  0  0  0  0  0  0  0  0  0  0
   -4.6776    0.9049   -3.3778 C   0  0  0  0  0  0  0  0  0  0  0  0
    1.9121    3.4800    1.3905 H   0  0  0  0  0  0  0  0  0  0  0  0
   -2.7814    2.7576    0.0403 H   0  0  0  0  0  0  0  0  0  0  0  0
   -0.4311   -1.5322   -0.3355 H   0  0  0  0  0  0  0  0  0  0  0  0
   -3.3112    0.5469    0.2047 H   0  0  0  0  0  0  0  0  0  0  0  0
   -2.7245   -0.9965   -0.3871 H   0  0  0  0  0  0  0  0  0  0  0  0
    3.1184   -0.7020    0.7326 H   0  0  0  0  0  0  0  0  0  0  0  0
    2.7848   -0.9601   -1.6933 H   0  0  0  0  0  0  0  0  0  0  0  0
    1.6225   -2.2549   -1.4389 H   0  0  0  0  0  0  0  0  0  0  0  0
    3.7957   -3.2251   -1.9706 H   0  0  0  0  0  0  0  0  0  0  0  0
    4.5835   -2.2950   -0.6985 H   0  0  0  0  0  0  0  0  0  0  0  0
    2.5087   -4.5096   -0.3239 H   0  0  0  0  0  0  0  0  0  0  0  0
    4.2228   -4.5952    0.0752 H   0  0  0  0  0  0  0  0  0  0  0  0
    2.8018   -4.1927    2.0910 H   0  0  0  0  0  0  0  0  0  0  0  0
    3.9654   -2.8965    1.8268 H   0  0  0  0  0  0  0  0  0  0  0  0
    0.9934   -2.8676    1.1313 H   0  0  0  0  0  0  0  0  0  0  0  0
    1.7838   -1.9344    2.3949 H   0  0  0  0  0  0  0  0  0  0  0  0
   -5.7691    0.9695   -3.3844 H   0  0  0  0  0  0  0  0  0  0  0  0
   -4.3725    0.1263   -4.0840 H   0  0  0  0  0  0  0  0  0  0  0  0
   -4.2713    1.8778   -3.6716 H   0  0  0  0  0  0  0  0  0  0  0  0
 41 23  1  0
 42 23  1  0
 40 23  1  0
 23 14  1  0
 13 12  2  0
 14 12  1  0
 32 17  1  0
 12 11  1  0
 30 16  1  0
 31 16  1  0
 16 17  1  0
 16 15  1  0
 17 33  1  0
 17 18  1  0
 11 28  1  0
 11 10  1  0
 11 27  1  0
 26  9  1  0
 34 18  1  0
 10  9  1  0
 10  5  2  0
  9  8  2  0
 18 35  1  0
 18 19  1  0
 25  6  1  0
  5  6  1  0
  5  4  1  0
  6  1  2  0
  8 15  1  0
  8  7  1  0
 15 29  1  0
 15 20  1  0
  4  7  2  0
  4  3  1  0
 21  1  1  0
  1  2  1  0
  3  2  2  0
  3 24  1  0
  2 22  1  0
 38 20  1  0
 20 19  1  0
 20 39  1  0
 19 37  1  0
 19 36  1  0
M  END
>  <_TriposChargeType>  (1) 
GASTEIGER

>  <Activity>  (1) 
3.28

$$$$
1_3A
     RDKit          3D

 38 39  0  0  0  0  0  0  0  0999 V2000
   -1.3545    4.1518    0.7193 C   0  0  0  0  0  0  0  0  0  0  0  0
   -0.0413    4.3836    1.0994 C   0  0  0  0  0  0  0  0  0  0  0  0
    0.9024    3.3381    1.1030 C   0  0  0  0  0  0  0  0  0  0  0  0
    0.5223    2.0389    0.7196 C   0  0  0  0  0  0  0  0  0  0  0  0
   -0.8195    1.8011    0.3308 C   0  0  0  0  0  0  0  0  0  0  0  0
   -1.7398    2.8720    0.3383 C   0  0  0  0  0  0  0  0  0  0  0  0
    1.4333    1.0458    0.7278 N   0  0  0  0  0  0  0  0  0  0  0  0
    1.0787   -0.2064    0.3620 C   0  0  0  0  0  0  0  0  0  0  0  0
   -0.2118   -0.5200   -0.0315 C   0  0  0  0  0  0  0  0  0  0  0  0
   -1.1812    0.4859   -0.0517 C   0  0  0  0  0  0  0  0  0  0  0  0
    2.1544   -1.2736    0.3954 C   0  0  0  0  0  0  0  0  0  0  0  0
    2.6983   -1.4512    1.8139 C   0  0  0  0  0  0  0  0  0  0  0  0
    3.2824   -0.9362   -0.5809 C   0  0  0  0  0  0  0  0  0  0  0  0
    2.4126    4.0985    2.9841 C   0  0  0  0  0  0  0  0  0  0  0  0
    3.0099    4.6419    0.5933 C   0  0  0  0  0  0  0  0  0  0  0  0
    2.3415    3.6285    1.5278 C   0  0  0  0  0  0  0  0  0  0  0  0
   -2.0762    4.9642    0.7194 H   0  0  0  0  0  0  0  0  0  0  0  0
   -2.5794    0.1306   -0.4812 C   0  0  0  0  0  0  0  0  0  0  0  0
    0.2484    5.3891    1.3958 H   0  0  0  0  0  0  0  0  0  0  0  0
   -2.7753    2.7193    0.0452 H   0  0  0  0  0  0  0  0  0  0  0  0
   -0.4629   -1.5361   -0.3197 H   0  0  0  0  0  0  0  0  0  0  0  0
    1.7199   -2.2321    0.0837 H   0  0  0  0  0  0  0  0  0  0  0  0
    1.8929   -1.7022    2.5132 H   0  0  0  0  0  0  0  0  0  0  0  0
    3.1847   -0.5400    2.1802 H   0  0  0  0  0  0  0  0  0  0  0  0
    3.4356   -2.2604    1.8463 H   0  0  0  0  0  0  0  0  0  0  0  0
    2.8963   -0.8195   -1.5997 H   0  0  0  0  0  0  0  0  0  0  0  0
    4.0324   -1.7342   -0.5952 H   0  0  0  0  0  0  0  0  0  0  0  0
    3.7902   -0.0039   -0.3090 H   0  0  0  0  0  0  0  0  0  0  0  0
    1.9090    5.0597    3.1323 H   0  0  0  0  0  0  0  0  0  0  0  0
    3.4551    4.2196    3.2979 H   0  0  0  0  0  0  0  0  0  0  0  0
    1.9439    3.3683    3.6533 H   0  0  0  0  0  0  0  0  0  0  0  0
    2.9665    4.3013   -0.4472 H   0  0  0  0  0  0  0  0  0  0  0  0
    4.0646    4.7718    0.8595 H   0  0  0  0  0  0  0  0  0  0  0  0
    2.5330    5.6265    0.6435 H   0  0  0  0  0  0  0  0  0  0  0  0
    2.9411    2.7127    1.4689 H   0  0  0  0  0  0  0  0  0  0  0  0
   -3.2884    0.3266    0.3296 H   0  0  0  0  0  0  0  0  0  0  0  0
   -2.6646   -0.9304   -0.7399 H   0  0  0  0  0  0  0  0  0  0  0  0
   -2.8637    0.7061   -1.3680 H   0  0  0  0  0  0  0  0  0  0  0  0
 26 13  1  0
 38 18  1  0
 37 18  1  0
 27 13  1  0
 13 28  1  0
 13 11  1  0
 18 10  1  0
 18 36  1  0
 32 15  1  0
 21  9  1  0
 10  9  1  0
 10  5  2  0
  9  8  2  0
 20  6  1  0
 22 11  1  0
  5  6  1  0
  5  4  1  0
  6  1  2  0
  8 11  1  0
  8  7  1  0
 11 12  1  0
 15 34  1  0
 15 33  1  0
 15 16  1  0
  1 17  1  0
  1  2  1  0
  4  7  2  0
  4  3  1  0
  2  3  2  0
  2 19  1  0
  3 16  1  0
 35 16  1  0
 16 14  1  0
 12 25  1  0
 12 24  1  0
 12 23  1  0
 14 29  1  0
 14 30  1  0
 14 31  1  0
M  END
>  <_TriposChargeType>  (2) 
GASTEIGER

>  <Activity>  (2) 
4.95

$$$$
4_3C
     RDKit          3D

 49 52  0  0  0  0  0  0  0  0999 V2000
   -1.3688    4.1009    0.8239 C   0  0  0  0  0  0  0  0  0  0  0  0
   -0.0301    4.3678    1.1244 C   0  0  0  0  0  0  0  0  0  0  0  0
    0.9141    3.3406    1.0492 C   0  0  0  0  0  0  0  0  0  0  0  0
    0.5217    2.0640    0.6402 C   0  0  0  0  0  0  0  0  0  0  0  0
   -0.7974    1.8129    0.2496 C   0  0  0  0  0  0  0  0  0  0  0  0
   -1.7562    2.8194    0.4200 C   0  0  0  0  0  0  0  0  0  0  0  0
    1.4258    1.0657    0.6256 N   0  0  0  0  0  0  0  0  0  0  0  0
    1.0381   -0.2230    0.5391 C   0  0  0  0  0  0  0  0  0  0  0  0
   -0.2724   -0.5090    0.1339 C   0  0  0  0  0  0  0  0  0  0  0  0
   -1.0860    0.5516   -0.2888 C   0  0  0  0  0  0  0  0  0  0  0  0
   -0.7951   -1.9287    0.1821 C   0  0  0  0  0  0  0  0  0  0  0  0
   -0.1285   -2.8261   -0.3058 O   0  0  0  0  0  0  0  0  0  0  0  0
   -1.9899   -2.1955    0.7680 N   0  0  0  0  0  0  0  0  0  0  0  0
   -2.4272   -3.2366    0.8693 N   0  0  0  0  0  0  0  0  0  0  0  0
    2.0464   -1.3234    0.9017 C   0  0  0  0  0  0  0  0  0  0  0  0
    3.4405   -0.7609    1.2773 C   0  0  0  0  0  0  0  0  0  0  0  0
    4.0591   -1.9250    2.0808 C   0  0  0  0  0  0  0  0  0  0  0  0
    2.8941   -2.3068    3.0217 C   0  0  0  0  0  0  0  0  0  0  0  0
    1.6215   -2.1637    2.1416 C   0  0  0  0  0  0  0  0  0  0  0  0
   -2.2272    0.3761   -1.3170 C   0  0  0  0  0  0  0  0  0  0  0  0
   -2.1659    1.4636   -2.4227 C   0  0  0  0  0  0  0  0  0  0  0  0
   -3.1620    0.9376   -3.4775 C   0  0  0  0  0  0  0  0  0  0  0  0
   -2.8604   -0.5789   -3.5356 C   0  0  0  0  0  0  0  0  0  0  0  0
   -2.1571   -0.9108   -2.1881 C   0  0  0  0  0  0  0  0  0  0  0  0
   -2.1094    4.8907    0.9070 H   0  0  0  0  0  0  0  0  0  0  0  0
    0.2748    5.3674    1.4189 H   0  0  0  0  0  0  0  0  0  0  0  0
    1.9510    3.5272    1.3087 H   0  0  0  0  0  0  0  0  0  0  0  0
   -2.8089    2.6188    0.2528 H   0  0  0  0  0  0  0  0  0  0  0  0
   -2.5044   -1.4265    1.1560 H   0  0  0  0  0  0  0  0  0  0  0  0
   -1.8219   -3.8505    1.5282 H   0  0  0  0  0  0  0  0  0  0  0  0
   -2.5207   -3.7278   -0.0938 H   0  0  0  0  0  0  0  0  0  0  0  0
    2.1880   -1.9773    0.0243 H   0  0  0  0  0  0  0  0  0  0  0  0
    3.3429    0.1152    1.9402 H   0  0  0  0  0  0  0  0  0  0  0  0
    4.0408   -0.4760    0.3977 H   0  0  0  0  0  0  0  0  0  0  0  0
    4.9734   -1.6342    2.6240 H   0  0  0  0  0  0  0  0  0  0  0  0
    4.2944   -2.7656    1.4063 H   0  0  0  0  0  0  0  0  0  0  0  0
    2.8592   -1.5770    3.8490 H   0  0  0  0  0  0  0  0  0  0  0  0
    3.0143   -3.3146    3.4526 H   0  0  0  0  0  0  0  0  0  0  0  0
    0.8145   -1.6716    2.7096 H   0  0  0  0  0  0  0  0  0  0  0  0
    1.2640   -3.1589    1.8291 H   0  0  0  0  0  0  0  0  0  0  0  0
   -3.2020    0.4134   -0.8029 H   0  0  0  0  0  0  0  0  0  0  0  0
   -1.1499    1.4996   -2.8512 H   0  0  0  0  0  0  0  0  0  0  0  0
   -2.4448    2.4780   -2.1019 H   0  0  0  0  0  0  0  0  0  0  0  0
   -3.0545    1.4395   -4.4535 H   0  0  0  0  0  0  0  0  0  0  0  0
   -4.1893    1.1024   -3.1088 H   0  0  0  0  0  0  0  0  0  0  0  0
   -2.1894   -0.7994   -4.3839 H   0  0  0  0  0  0  0  0  0  0  0  0
   -3.7903   -1.1555   -3.6776 H   0  0  0  0  0  0  0  0  0  0  0  0
   -1.1011   -1.1580   -2.3912 H   0  0  0  0  0  0  0  0  0  0  0  0
   -2.6381   -1.7753   -1.7063 H   0  0  0  0  0  0  0  0  0  0  0  0
 44 22  1  0
 46 23  1  0
 47 23  1  0
 23 22  1  0
 23 24  1  0
 22 45  1  0
 22 21  1  0
 42 21  1  0
 21 43  1  0
 21 20  1  0
 48 24  1  0
 24 49  1  0
 24 20  1  0
 20 41  1  0
 20 10  1  0
 12 11  2  0
 10  9  1  0
 10  5  2  0
 31 14  1  0
 32 15  1  0
  9 11  1  0
  9  8  2  0
 11 13  1  0
  5  6  1  0
  5  4  1  0
 28  6  1  0
 34 16  1  0
  6  1  2  0
  8  7  1  0
  8 15  1  0
  7  4  2  0
  4  3  1  0
 13 14  1  0
 13 29  1  0
  1 25  1  0
  1  2  1  0
 14 30  1  0
 15 16  1  0
 15 19  1  0
  3  2  2  0
  3 27  1  0
  2 26  1  0
 16 33  1  0
 16 17  1  0
 36 17  1  0
 40 19  1  0
 17 35  1  0
 17 18  1  0
 19 39  1  0
 19 18  1  0
 18 38  1  0
 18 37  1  0
M  END
>  <_TriposChargeType>  (3) 
GASTEIGER

>  <Activity>  (3) 
4.82

$$$$
4_7L
     RDKit          3D

 65 70  0  0  0  0  0  0  0  0999 V2000
   -1.0590    1.8460    0.3010 C   0  0  0  0  0  0  0  0  0  0  0  0
   -2.0500    2.8520    0.4460 C   0  0  0  0  0  0  0  0  0  0  0  0
   -1.7370    4.1390    0.9160 C   0  0  0  0  0  0  0  0  0  0  0  0
   -0.4240    4.4880    1.2780 C   0  0  0  0  0  0  0  0  0  0  0  0
    0.5920    3.4730    1.1620 C   0  0  0  0  0  0  0  0  0  0  0  0
    0.2700    2.1830    0.6960 C   0  0  0  0  0  0  0  0  0  0  0  0
    1.2520    1.2470    0.6570 N   0  0  0  0  0  0  0  0  0  0  0  0
    1.0560   -0.0400    0.2820 C   0  0  0  0  0  0  0  0  0  0  0  0
   -0.2470   -0.4090   -0.1290 C   0  0  0  0  0  0  0  0  0  0  0  0
   -1.3180    0.5220   -0.1810 C   0  0  0  0  0  0  0  0  0  0  0  0
    2.1240   -0.9800    0.3310 C   0  0  0  0  0  0  0  0  0  0  0  0
    3.4340   -0.6060    0.5240 N   0  0  0  0  0  0  0  0  0  0  0  0
    1.8330   -2.1990    0.2420 O   0  0  0  0  0  0  0  0  0  0  0  0
   -2.6760    0.0680   -0.6940 C   0  0  2  0  0  0  0  0  0  0  0  0
   -3.0320    0.8790   -1.9840 C   0  0  0  0  0  0  0  0  0  0  0  0
   -3.7860   -0.0110    0.4100 C   0  0  0  0  0  0  0  0  0  0  0  0
   -5.1610   -0.6980    0.0910 C   0  0  1  0  0  0  0  0  0  0  0  0
   -4.2180    0.3980   -2.8970 C   0  0  2  0  0  0  0  0  0  0  0  0
   -5.5850    1.1360   -2.6910 C   0  0  0  0  0  0  0  0  0  0  0  0
   -6.0430    1.4570   -1.2460 C   0  0  0  0  0  0  0  0  0  0  0  0
   -6.3290    0.2800   -0.2790 C   0  0  0  0  0  0  0  0  0  0  0  0
   -4.3220   -1.1490   -3.1250 C   0  0  0  0  0  0  0  0  0  0  0  0
   -5.3310   -1.9620   -2.2710 C   0  0  0  0  0  0  0  0  0  0  0  0
   -5.1040   -2.0260   -0.7380 C   0  0  0  0  0  0  0  0  0  0  0  0
    4.5200   -1.4470    0.5970 C   0  0  0  0  0  0  0  0  0  0  0  0
    4.7510   -2.3250    1.6820 C   0  0  0  0  0  0  0  0  0  0  0  0
    5.4750   -1.4410   -0.4460 C   0  0  0  0  0  0  0  0  0  0  0  0
    6.6670   -2.1970   -0.3440 C   0  0  0  0  0  0  0  0  0  0  0  0
    6.8610   -2.9950    0.8170 C   0  0  0  0  0  0  0  0  0  0  0  0
    5.8940   -3.0460    1.7660 N   0  0  0  0  0  0  0  0  0  0  0  0
    7.6790   -2.1670   -1.3310 C   0  0  0  0  0  0  0  0  0  0  0  0
    8.8710   -2.8970   -1.1490 C   0  0  0  0  0  0  0  0  0  0  0  0
    9.0590   -3.6700    0.0120 C   0  0  0  0  0  0  0  0  0  0  0  0
    8.0530   -3.7250    0.9930 C   0  0  0  0  0  0  0  0  0  0  0  0
   -3.0860    2.6290    0.1880 H   0  0  0  0  0  0  0  0  0  0  0  0
   -2.5290    4.8830    1.0020 H   0  0  0  0  0  0  0  0  0  0  0  0
   -0.2060    5.4960    1.6320 H   0  0  0  0  0  0  0  0  0  0  0  0
    1.6260    3.6860    1.4310 H   0  0  0  0  0  0  0  0  0  0  0  0
   -0.4310   -1.4440   -0.4150 H   0  0  0  0  0  0  0  0  0  0  0  0
    3.6150    0.3820    0.6220 H   0  0  0  0  0  0  0  0  0  0  0  0
   -2.5800   -0.9780   -0.9840 H   0  0  0  0  0  0  0  0  0  0  0  0
   -3.3450    1.8560   -1.6150 H   0  0  0  0  0  0  0  0  0  0  0  0
   -2.1460    0.7920   -2.6140 H   0  0  0  0  0  0  0  0  0  0  0  0
   -3.3460   -0.6280    1.1930 H   0  0  0  0  0  0  0  0  0  0  0  0
   -4.0400    1.0290    0.6140 H   0  0  0  0  0  0  0  0  0  0  0  0
   -5.4570   -1.0730    1.0710 H   0  0  0  0  0  0  0  0  0  0  0  0
   -3.9040    0.7610   -3.8760 H   0  0  0  0  0  0  0  0  0  0  0  0
   -5.4540    2.1110   -3.1600 H   0  0  0  0  0  0  0  0  0  0  0  0
   -6.3390    0.4460   -3.0700 H   0  0  0  0  0  0  0  0  0  0  0  0
   -5.2010    1.9860   -0.7990 H   0  0  0  0  0  0  0  0  0  0  0  0
   -7.0020    1.9610   -1.3630 H   0  0  0  0  0  0  0  0  0  0  0  0
   -6.6020    0.7590    0.6610 H   0  0  0  0  0  0  0  0  0  0  0  0
   -7.0550   -0.3370   -0.8080 H   0  0  0  0  0  0  0  0  0  0  0  0
   -4.6790   -1.2600   -4.1490 H   0  0  0  0  0  0  0  0  0  0  0  0
   -3.3450   -1.5420   -2.8420 H   0  0  0  0  0  0  0  0  0  0  0  0
   -6.2820   -1.4430   -2.3910 H   0  0  0  0  0  0  0  0  0  0  0  0
   -5.2240   -2.9910   -2.6130 H   0  0  0  0  0  0  0  0  0  0  0  0
   -5.9330   -2.6270   -0.3640 H   0  0  0  0  0  0  0  0  0  0  0  0
   -4.0800   -2.3820   -0.6280 H   0  0  0  0  0  0  0  0  0  0  0  0
    4.0220   -2.4510    2.4830 H   0  0  0  0  0  0  0  0  0  0  0  0
    5.2890   -0.8460   -1.3400 H   0  0  0  0  0  0  0  0  0  0  0  0
    7.5390   -1.5790   -2.2380 H   0  0  0  0  0  0  0  0  0  0  0  0
    9.6520   -2.8630   -1.9090 H   0  0  0  0  0  0  0  0  0  0  0  0
    9.9850   -4.2280    0.1520 H   0  0  0  0  0  0  0  0  0  0  0  0
    8.1970   -4.3310    1.8870 H   0  0  0  0  0  0  0  0  0  0  0  0
  1  2  2  0
  1  6  1  0
  1 10  1  0
  2  3  1  0
  3  4  2  0
  4  5  1  0
  5  6  2  0
  6  7  1  0
  7  8  2  0
  8  9  1  0
  9 10  2  0
  8 11  1  0
 11 12  1  0
 11 13  2  0
 10 14  1  0
 14 15  1  0
 14 16  1  0
 16 17  1  0
 15 18  1  0
 18 19  1  0
 19 20  1  0
 20 21  1  0
 17 21  1  0
 18 22  1  0
 22 23  1  0
 23 24  1  0
 24 17  1  0
 12 25  1  0
 26 25  2  0
 25 27  1  0
 26 30  1  0
 27 28  2  0
 29 30  2  0
 29 34  1  0
 28 29  1  0
 28 31  1  0
 31 32  2  0
 32 33  1  0
 33 34  2  0
  2 35  1  0
  3 36  1  0
  4 37  1  0
  5 38  1  0
  9 39  1  0
 12 40  1  0
 14 41  1  6
 15 42  1  0
 15 43  1  0
 16 44  1  0
 16 45  1  0
 17 46  1  1
 18 47  1  6
 19 48  1  0
 19 49  1  0
 20 50  1  0
 20 51  1  0
 21 52  1  0
 21 53  1  0
 22 54  1  0
 22 55  1  0
 23 56  1  0
 23 57  1  0
 24 58  1  0
 24 59  1  0
 26 60  1  0
 27 61  1  0
 31 62  1  0
 32 63  1  0
 33 64  1  0
 34 65  1  0
M  END
>  <_TriposChargeType>  (4) 
USER_CHARGES

>  <Activity>  (4) 
4.67

$$$$
3_7A
     RDKit          3D

 36 38  0  0  0  0  0  0  0  0999 V2000
   -1.3513    4.1461    0.7161 C   0  0  0  0  0  0  0  0  0  0  0  0
   -0.0350    4.3750    1.1002 C   0  0  0  0  0  0  0  0  0  0  0  0
    0.8834    3.3211    1.0981 C   0  0  0  0  0  0  0  0  0  0  0  0
    0.5188    2.0362    0.7196 C   0  0  0  0  0  0  0  0  0  0  0  0
   -0.8143    1.8089    0.3323 C   0  0  0  0  0  0  0  0  0  0  0  0
   -1.7431    2.8652    0.3327 C   0  0  0  0  0  0  0  0  0  0  0  0
    1.4374    1.0549    0.7331 N   0  0  0  0  0  0  0  0  0  0  0  0
    1.0867   -0.2081    0.3533 C   0  0  0  0  0  0  0  0  0  0  0  0
   -0.2204   -0.5172   -0.0283 C   0  0  0  0  0  0  0  0  0  0  0  0
   -1.1736    0.5089   -0.0403 C   0  0  0  0  0  0  0  0  0  0  0  0
   -0.6360   -1.8940   -0.3750 C   0  0  0  0  0  0  0  0  0  0  0  0
   -0.2489   -2.8999    0.1932 O   0  0  0  0  0  0  0  0  0  0  0  0
   -1.4952   -1.8489   -1.4252 O   0  0  0  0  0  0  0  0  0  0  0  0
    2.1977   -1.2421    0.4021 C   0  0  0  0  0  0  0  0  0  0  0  0
    2.3470   -1.8256    1.8210 C   0  0  0  0  0  0  0  0  0  0  0  0
    3.8311   -1.7413    2.1573 C   0  0  0  0  0  0  0  0  0  0  0  0
    4.3127   -0.5313    1.3782 C   0  0  0  0  0  0  0  0  0  0  0  0
    3.5904   -0.6782    0.0471 C   0  0  0  0  0  0  0  0  0  0  0  0
   -2.0703    4.9614    0.7159 H   0  0  0  0  0  0  0  0  0  0  0  0
   -1.9475   -3.1331   -1.8578 C   0  0  0  0  0  0  0  0  0  0  0  0
    0.2829    5.3696    1.4024 H   0  0  0  0  0  0  0  0  0  0  0  0
    1.9117    3.5062    1.4000 H   0  0  0  0  0  0  0  0  0  0  0  0
   -2.7752    2.6948    0.0348 H   0  0  0  0  0  0  0  0  0  0  0  0
   -2.2003    0.2926   -0.3269 H   0  0  0  0  0  0  0  0  0  0  0  0
    1.9933   -2.0355   -0.3252 H   0  0  0  0  0  0  0  0  0  0  0  0
    1.9935   -2.8610    1.8706 H   0  0  0  0  0  0  0  0  0  0  0  0
    1.7710   -1.2534    2.5590 H   0  0  0  0  0  0  0  0  0  0  0  0
    4.3461   -2.6447    1.8094 H   0  0  0  0  0  0  0  0  0  0  0  0
    4.0074   -1.6431    3.2323 H   0  0  0  0  0  0  0  0  0  0  0  0
    5.4000   -0.5192    1.2603 H   0  0  0  0  0  0  0  0  0  0  0  0
    4.0106    0.3943    1.8813 H   0  0  0  0  0  0  0  0  0  0  0  0
    4.1279   -1.4153   -0.5641 H   0  0  0  0  0  0  0  0  0  0  0  0
    3.5700    0.2560   -0.5226 H   0  0  0  0  0  0  0  0  0  0  0  0
   -2.4951   -3.6368   -1.0550 H   0  0  0  0  0  0  0  0  0  0  0  0
   -1.1035   -3.7432   -2.1946 H   0  0  0  0  0  0  0  0  0  0  0  0
   -2.6273   -2.9861   -2.7016 H   0  0  0  0  0  0  0  0  0  0  0  0
 36 20  1  0
 35 20  1  0
 20 13  1  0
 20 34  1  0
 13 11  1  0
 32 18  1  0
 33 18  1  0
 11  9  1  0
 11 12  2  0
 24 10  1  0
 25 14  1  0
 10  9  1  0
 10  5  2  0
  9  8  2  0
 23  6  1  0
 18 14  1  0
 18 17  1  0
  5  6  1  0
  5  4  1  0
  6  1  2  0
  8 14  1  0
  8  7  1  0
 14 15  1  0
 19  1  1  0
  1  2  1  0
  4  7  2  0
  4  3  1  0
  3  2  2  0
  3 22  1  0
  2 21  1  0
 30 17  1  0
 17 31  1  0
 17 16  1  0
 28 16  1  0
 15 26  1  0
 15 16  1  0
 15 27  1  0
 16 29  1  0
M  END
>  <_TriposChargeType>  (5) 
GASTEIGER

>  <Activity>  (5) 
4.20

$$$$
3_14E
     RDKit          3D

 50 54  0  0  0  0  0  0  0  0999 V2000
   -1.3386    4.1627    0.7316 C   0  0  0  0  0  0  0  0  0  0  0  0
   -0.0201    4.3749    1.1042 C   0  0  0  0  0  0  0  0  0  0  0  0
    0.8803    3.3086    1.0879 C   0  0  0  0  0  0  0  0  0  0  0  0
    0.4993    2.0291    0.7075 C   0  0  0  0  0  0  0  0  0  0  0  0
   -0.8388    1.7994    0.3216 C   0  0  0  0  0  0  0  0  0  0  0  0
   -1.7469    2.8868    0.3433 C   0  0  0  0  0  0  0  0  0  0  0  0
    1.4326    1.0643    0.7262 N   0  0  0  0  0  0  0  0  0  0  0  0
    1.0989   -0.1991    0.3781 C   0  0  0  0  0  0  0  0  0  0  0  0
   -0.1967   -0.5164   -0.0195 C   0  0  0  0  0  0  0  0  0  0  0  0
   -1.1814    0.4808   -0.0639 C   0  0  0  0  0  0  0  0  0  0  0  0
   -2.5782    0.0944   -0.5009 C   0  0  0  0  0  0  0  0  0  0  0  0
   -3.5420   -0.1028    0.6492 C   0  0  0  0  0  0  0  0  0  0  0  0
   -3.2419   -0.4367    1.7867 O   0  0  0  0  0  0  0  0  0  0  0  0
   -4.8199    0.1017    0.2117 O   0  0  0  0  0  0  0  0  0  0  0  0
    2.1944   -1.2667    0.4415 C   0  0  1  0  0  0  0  0  0  0  0  0
    2.4138   -1.9119   -0.9551 C   0  0  0  0  0  0  0  0  0  0  0  0
    3.5010   -2.9995   -0.8930 C   0  0  1  0  0  0  0  0  0  0  0  0
    4.8243   -2.3706   -0.4326 C   0  0  0  0  0  0  0  0  0  0  0  0
    4.6508   -1.7484    0.9608 C   0  0  1  0  0  0  0  0  0  0  0  0
    3.5591   -0.6671    0.8994 C   0  0  0  0  0  0  0  0  0  0  0  0
    3.0766   -4.0835    0.1117 C   0  0  0  0  0  0  0  0  0  0  0  0
    2.9004   -3.4687    1.5101 C   0  0  1  0  0  0  0  0  0  0  0  0
   -5.8139   -0.0813    1.2214 C   0  0  0  0  0  0  0  0  0  0  0  0
    4.2271   -2.8374    1.9575 C   0  0  0  0  0  0  0  0  0  0  0  0
    1.8118   -2.3823    1.4533 C   0  0  0  0  0  0  0  0  0  0  0  0
   -2.0498    4.9846    0.7441 H   0  0  0  0  0  0  0  0  0  0  0  0
    0.3137    5.3624    1.4107 H   0  0  0  0  0  0  0  0  0  0  0  0
    1.9130    3.4785    1.3845 H   0  0  0  0  0  0  0  0  0  0  0  0
   -2.7878    2.7550    0.0615 H   0  0  0  0  0  0  0  0  0  0  0  0
   -0.4486   -1.5379   -0.2889 H   0  0  0  0  0  0  0  0  0  0  0  0
   -2.5535   -0.8421   -1.0717 H   0  0  0  0  0  0  0  0  0  0  0  0
   -2.9645    0.8584   -1.1855 H   0  0  0  0  0  0  0  0  0  0  0  0
    2.6990   -1.1436   -1.6862 H   0  0  0  0  0  0  0  0  0  0  0  0
    1.4865   -2.3633   -1.3299 H   0  0  0  0  0  0  0  0  0  0  0  0
    3.6311   -3.4466   -1.8849 H   0  0  0  0  0  0  0  0  0  0  0  0
    5.1450   -1.6042   -1.1489 H   0  0  0  0  0  0  0  0  0  0  0  0
    5.6129   -3.1326   -0.4074 H   0  0  0  0  0  0  0  0  0  0  0  0
    5.5966   -1.2998    1.2847 H   0  0  0  0  0  0  0  0  0  0  0  0
    3.8777    0.1272    0.2107 H   0  0  0  0  0  0  0  0  0  0  0  0
    3.4592   -0.2013    1.8892 H   0  0  0  0  0  0  0  0  0  0  0  0
    3.8321   -4.8781    0.1453 H   0  0  0  0  0  0  0  0  0  0  0  0
    2.1387   -4.5500   -0.2138 H   0  0  0  0  0  0  0  0  0  0  0  0
    2.6052   -4.2483    2.2212 H   0  0  0  0  0  0  0  0  0  0  0  0
   -5.6602    0.6247    2.0435 H   0  0  0  0  0  0  0  0  0  0  0  0
   -5.8028   -1.1129    1.5870 H   0  0  0  0  0  0  0  0  0  0  0  0
   -6.7916    0.1167    0.7735 H   0  0  0  0  0  0  0  0  0  0  0  0
    5.0053   -3.6076    2.0245 H   0  0  0  0  0  0  0  0  0  0  0  0
    4.1185   -2.4068    2.9606 H   0  0  0  0  0  0  0  0  0  0  0  0
    0.8591   -2.8523    1.1779 H   0  0  0  0  0  0  0  0  0  0  0  0
    1.6647   -1.9521    2.4531 H   0  0  0  0  0  0  0  0  0  0  0  0
 17 35  1  6
 33 16  1  0
 34 16  1  0
 32 11  1  0
 36 18  1  0
 31 11  1  0
 16 17  1  0
 16 15  1  0
 17 18  1  0
 17 21  1  0
 11 10  1  0
 11 12  1  0
 18 37  1  0
 18 19  1  0
 30  9  1  0
 42 21  1  0
 10  9  1  0
 10  5  2  0
  9  8  2  0
 29  6  1  0
 21 41  1  0
 21 22  1  0
 39 20  1  0
 14 12  1  0
 14 23  1  0
  5  6  1  0
  5  4  1  0
  6  1  2  0
 15  8  1  6
  8  7  1  0
 15 20  1  0
 15 25  1  0
 12 13  2  0
  4  7  2  0
  4  3  1  0
  1 26  1  0
  1  2  1  0
 46 23  1  0
 20 19  1  0
 20 40  1  0
 19 38  1  1
 19 24  1  0
  3  2  2  0
  3 28  1  0
  2 27  1  0
 49 25  1  0
 23 45  1  0
 23 44  1  0
 25 22  1  0
 25 50  1  0
 22 24  1  0
 22 43  1  1
 24 47  1  0
 24 48  1  0
M  END
>  <_TriposChargeType>  (6) 
GASTEIGER

>  <Activity>  (6) 
3.78

$$$$
2_2H
     RDKit          3D

 51 54  0  0  0  0  0  0  0  0999 V2000
   -1.3390    4.1815    0.7139 C   0  0  0  0  0  0  0  0  0  0  0  0
   -0.0323    4.4046    1.1050 C   0  0  0  0  0  0  0  0  0  0  0  0
    0.8542    3.3221    1.0976 C   0  0  0  0  0  0  0  0  0  0  0  0
    0.5140    2.0233    0.7247 C   0  0  0  0  0  0  0  0  0  0  0  0
   -0.8284    1.7914    0.3381 C   0  0  0  0  0  0  0  0  0  0  0  0
   -1.7288    2.8944    0.3351 C   0  0  0  0  0  0  0  0  0  0  0  0
    1.4382    1.0412    0.7305 N   0  0  0  0  0  0  0  0  0  0  0  0
    1.0972   -0.2058    0.3473 C   0  0  0  0  0  0  0  0  0  0  0  0
   -0.1944   -0.5239   -0.0419 C   0  0  0  0  0  0  0  0  0  0  0  0
   -1.1922    0.4621   -0.0333 C   0  0  0  0  0  0  0  0  0  0  0  0
    2.1858   -1.2616    0.3516 C   0  0  0  0  0  0  0  0  0  0  0  0
    2.7457   -1.4705    1.7680 C   0  0  0  0  0  0  0  0  0  0  0  0
    3.8644   -2.5104    1.7787 C   0  0  0  0  0  0  0  0  0  0  0  0
    2.2132    3.5805    1.5006 N   0  0  0  0  0  4  0  0  0  0  0  0
    2.9932    3.9797    0.6241 O   0  0  0  0  0  0  0  0  0  0  0  0
    2.4719    3.4740    2.7079 O   0  0  0  0  0  1  0  0  0  0  0  0
    4.9725   -2.1551    0.7917 C   0  0  0  0  0  0  0  0  0  0  0  0
    4.4255   -1.9403   -0.6165 C   0  0  0  0  0  0  0  0  0  0  0  0
    3.3083   -0.8989   -0.6342 C   0  0  0  0  0  0  0  0  0  0  0  0
   -2.0577    4.9976    0.6984 H   0  0  0  0  0  0  0  0  0  0  0  0
    0.2949    5.3970    1.4044 H   0  0  0  0  0  0  0  0  0  0  0  0
   -2.7632    2.7697    0.0231 H   0  0  0  0  0  0  0  0  0  0  0  0
   -0.4099   -1.5395   -0.3557 H   0  0  0  0  0  0  0  0  0  0  0  0
   -2.6168    0.1002   -0.4580 C   0  0  0  0  0  0  0  0  0  0  0  0
    1.7506   -2.2158    0.0231 H   0  0  0  0  0  0  0  0  0  0  0  0
    1.9449   -1.7909    2.4460 H   0  0  0  0  0  0  0  0  0  0  0  0
    3.1347   -0.5256    2.1698 H   0  0  0  0  0  0  0  0  0  0  0  0
    4.2824   -2.5910    2.7885 H   0  0  0  0  0  0  0  0  0  0  0  0
    3.4505   -3.4941    1.5249 H   0  0  0  0  0  0  0  0  0  0  0  0
    5.4815   -1.2433    1.1279 H   0  0  0  0  0  0  0  0  0  0  0  0
    5.7233   -2.9532    0.7776 H   0  0  0  0  0  0  0  0  0  0  0  0
    5.2359   -1.6220   -1.2820 H   0  0  0  0  0  0  0  0  0  0  0  0
    4.0443   -2.8909   -1.0094 H   0  0  0  0  0  0  0  0  0  0  0  0
    3.7332    0.0829   -0.3870 H   0  0  0  0  0  0  0  0  0  0  0  0
    2.9044   -0.8162   -1.6509 H   0  0  0  0  0  0  0  0  0  0  0  0
   -3.0835   -1.3134   -0.0476 C   0  0  0  0  0  0  0  0  0  0  0  0
   -4.5320   -1.5600   -0.4698 C   0  0  0  0  0  0  0  0  0  0  0  0
   -4.7152   -1.3508   -1.9703 C   0  0  0  0  0  0  0  0  0  0  0  0
   -4.2324    0.0276   -2.4118 C   0  0  0  0  0  0  0  0  0  0  0  0
   -2.7935    0.2979   -1.9735 C   0  0  0  0  0  0  0  0  0  0  0  0
   -3.3062    0.7752    0.0630 H   0  0  0  0  0  0  0  0  0  0  0  0
   -2.9927   -1.4391    1.0381 H   0  0  0  0  0  0  0  0  0  0  0  0
   -2.4616   -2.0870   -0.5125 H   0  0  0  0  0  0  0  0  0  0  0  0
   -4.8246   -2.5816   -0.2024 H   0  0  0  0  0  0  0  0  0  0  0  0
   -5.1963   -0.8824    0.0803 H   0  0  0  0  0  0  0  0  0  0  0  0
   -4.1588   -2.1228   -2.5161 H   0  0  0  0  0  0  0  0  0  0  0  0
   -5.7718   -1.4731   -2.2334 H   0  0  0  0  0  0  0  0  0  0  0  0
   -4.3065    0.1115   -3.5019 H   0  0  0  0  0  0  0  0  0  0  0  0
   -4.8905    0.7961   -1.9879 H   0  0  0  0  0  0  0  0  0  0  0  0
   -2.1165   -0.3714   -2.5207 H   0  0  0  0  0  0  0  0  0  0  0  0
   -2.5204    1.3199   -2.2631 H   0  0  0  0  0  0  0  0  0  0  0  0
 48 39  1  0
 50 40  1  0
 46 38  1  0
 39 49  1  0
 39 40  1  0
 39 38  1  0
 51 40  1  0
 47 38  1  0
 40 24  1  0
 38 37  1  0
 35 19  1  0
 32 18  1  0
 33 18  1  0
 19 18  1  0
 19 34  1  0
 19 11  1  0
 18 17  1  0
 43 36  1  0
 37 44  1  0
 37 36  1  0
 37 45  1  0
 24 36  1  0
 24 10  1  0
 24 41  1  0
 23  9  1  0
 36 42  1  0
  9 10  1  0
  9  8  2  0
 10  5  2  0
 22  6  1  0
 25 11  1  0
  6  5  1  0
  6  1  2  0
  5  4  1  0
  8 11  1  0
  8  7  1  0
 11 12  1  0
 15 14  2  0
 20  1  1  0
  1  2  1  0
  4  7  2  0
  4  3  1  0
 31 17  1  0
 17 30  1  0
 17 13  1  0
  3  2  2  0
  3 14  1  0
  2 21  1  0
 14 16  1  0
 29 13  1  0
 12 13  1  0
 12 27  1  0
 12 26  1  0
 13 28  1  0
M  CHG  2  14   1  16  -1
M  END
>  <_TriposChargeType>  (7) 
GASTEIGER

>  <Activity>  (7) 
7.53

$$$$
4_2D
     RDKit          3D

 47 51  0  0  0  0  0  0  0  0999 V2000
   -1.3164    4.1750    0.7334 C   0  0  0  0  0  0  0  0  0  0  0  0
   -0.0019    4.3773    1.1071 C   0  0  0  0  0  0  0  0  0  0  0  0
    0.8802    3.3012    1.0892 C   0  0  0  0  0  0  0  0  0  0  0  0
    0.4845    2.0268    0.7076 C   0  0  0  0  0  0  0  0  0  0  0  0
   -0.8624    1.7772    0.3154 C   0  0  0  0  0  0  0  0  0  0  0  0
   -1.7358    2.8995    0.3457 C   0  0  0  0  0  0  0  0  0  0  0  0
    1.4384    1.0930    0.7392 N   0  0  0  0  0  0  0  0  0  0  0  0
    1.0939   -0.1611    0.3749 C   0  0  0  0  0  0  0  0  0  0  0  0
   -0.1808   -0.5281   -0.0251 C   0  0  0  0  0  0  0  0  0  0  0  0
   -1.2111    0.4303   -0.0704 C   0  0  0  0  0  0  0  0  0  0  0  0
    2.1866   -1.1846    0.4223 C   0  0  0  0  0  0  0  0  0  0  0  0
    1.9965   -2.3596    0.1206 O   0  0  0  0  0  0  0  0  0  0  0  0
    3.4134   -0.6840    0.8386 N   0  0  0  0  0  0  0  0  0  0  0  0
   -2.6310   -0.0154   -0.5239 C   0  0  2  0  0  0  0  0  0  0  0  0
   -2.7271   -1.5453   -0.8869 C   0  0  0  0  0  0  0  0  0  0  0  0
   -4.1436   -1.9546   -1.3315 C   0  0  2  0  0  0  0  0  0  0  0  0
   -4.5409   -1.1422   -2.5696 C   0  0  0  0  0  0  0  0  0  0  0  0
   -4.4951    0.3544   -2.2383 C   0  0  2  0  0  0  0  0  0  0  0  0
   -3.0650    0.7364   -1.8185 C   0  0  0  0  0  0  0  0  0  0  0  0
    4.5235   -1.5389    0.9831 N   0  0  0  0  0  0  0  0  0  0  0  0
   -5.1338   -1.6679   -0.1964 C   0  0  0  0  0  0  0  0  0  0  0  0
   -5.0933   -0.1760    0.1559 C   0  0  2  0  0  0  0  0  0  0  0  0
   -5.4647    0.6548   -1.0834 C   0  0  0  0  0  0  0  0  0  0  0  0
   -3.6731    0.1971    0.6155 C   0  0  0  0  0  0  0  0  0  0  0  0
   -2.0220    5.0022    0.7405 H   0  0  0  0  0  0  0  0  0  0  0  0
    0.3417    5.3619    1.4116 H   0  0  0  0  0  0  0  0  0  0  0  0
    1.9146    3.4662    1.3847 H   0  0  0  0  0  0  0  0  0  0  0  0
   -2.7793    2.8137    0.0658 H   0  0  0  0  0  0  0  0  0  0  0  0
   -0.3334   -1.5677   -0.2933 H   0  0  0  0  0  0  0  0  0  0  0  0
    3.4652    0.2985    1.1158 H   0  0  0  0  0  0  0  0  0  0  0  0
   -2.4472   -2.1611   -0.0214 H   0  0  0  0  0  0  0  0  0  0  0  0
   -2.0282   -1.7896   -1.6982 H   0  0  0  0  0  0  0  0  0  0  0  0
   -4.1597   -3.0236   -1.5723 H   0  0  0  0  0  0  0  0  0  0  0  0
   -5.5482   -1.4247   -2.8992 H   0  0  0  0  0  0  0  0  0  0  0  0
   -3.8603   -1.3650   -3.4004 H   0  0  0  0  0  0  0  0  0  0  0  0
   -4.7842    0.9336   -3.1226 H   0  0  0  0  0  0  0  0  0  0  0  0
   -3.0277    1.8215   -1.7080 H   0  0  0  0  0  0  0  0  0  0  0  0
   -2.3662    0.5039   -2.6340 H   0  0  0  0  0  0  0  0  0  0  0  0
    4.8261   -1.8017    0.0401 H   0  0  0  0  0  0  0  0  0  0  0  0
    4.1702   -2.4221    1.3710 H   0  0  0  0  0  0  0  0  0  0  0  0
   -4.8810   -2.2701    0.6848 H   0  0  0  0  0  0  0  0  0  0  0  0
   -6.1480   -1.9566   -0.4984 H   0  0  0  0  0  0  0  0  0  0  0  0
   -5.8051    0.0283    0.9638 H   0  0  0  0  0  0  0  0  0  0  0  0
   -6.4918    0.4231   -1.3913 H   0  0  0  0  0  0  0  0  0  0  0  0
   -5.4391    1.7241   -0.8401 H   0  0  0  0  0  0  0  0  0  0  0  0
   -3.6985    1.2268    0.9766 H   0  0  0  0  0  0  0  0  0  0  0  0
   -3.3963   -0.4095    1.4889 H   0  0  0  0  0  0  0  0  0  0  0  0
 35 17  1  0
 18 36  1  6
 34 17  1  0
 38 19  1  0
 17 18  1  0
 17 16  1  0
 18 19  1  0
 18 23  1  0
 19 37  1  0
 19 14  1  0
 32 15  1  0
 16 33  1  6
 44 23  1  0
 16 15  1  0
 16 21  1  0
 23 45  1  0
 23 22  1  0
 15 14  1  0
 15 31  1  0
 14 10  1  1
 14 24  1  0
 42 21  1  0
 29  9  1  0
 21 22  1  0
 21 41  1  0
 10  9  1  0
 10  5  2  0
  9  8  2  0
 39 20  1  0
 28  6  1  0
 12 11  2  0
 22 24  1  0
 22 43  1  1
  5  6  1  0
  5  4  1  0
  6  1  2  0
  8 11  1  0
  8  7  1  0
 11 13  1  0
 24 46  1  0
 24 47  1  0
  4  7  2  0
  4  3  1  0
  1 25  1  0
  1  2  1  0
 13 20  1  0
 13 30  1  0
 20 40  1  0
  3  2  2  0
  3 27  1  0
  2 26  1  0
M  END
>  <_TriposChargeType>  (8) 
GASTEIGER

>  <Activity>  (8) 
6.71

$$$$
4_7M
     RDKit          3D

 63 67  0  0  0  0  0  0  0  0999 V2000
   -0.8450    1.9290    0.2860 C   0  0  0  0  0  0  0  0  0  0  0  0
   -1.7460    3.0280    0.2740 C   0  0  0  0  0  0  0  0  0  0  0  0
   -1.3370    4.3220    0.6400 C   0  0  0  0  0  0  0  0  0  0  0  0
   -0.0130    4.5580    1.0370 C   0  0  0  0  0  0  0  0  0  0  0  0
    0.9060    3.4970    1.0640 C   0  0  0  0  0  0  0  0  0  0  0  0
    0.4950    2.1980    0.6990 C   0  0  0  0  0  0  0  0  0  0  0  0
    1.4060    1.1940    0.7540 N   0  0  0  0  0  0  0  0  0  0  0  0
    1.1230   -0.1000    0.4600 C   0  0  0  0  0  0  0  0  0  0  0  0
   -0.2030   -0.4130    0.0870 C   0  0  0  0  0  0  0  0  0  0  0  0
   -1.1970    0.5850   -0.0730 C   0  0  0  0  0  0  0  0  0  0  0  0
    2.1440   -1.0900    0.5160 C   0  0  0  0  0  0  0  0  0  0  0  0
    3.4170   -0.7960    0.9200 N   0  0  0  0  0  0  0  0  0  0  0  0
    1.8780   -2.2670    0.1690 O   0  0  0  0  0  0  0  0  0  0  0  0
   -2.5670    0.1840   -0.5920 C   0  0  2  0  0  0  0  0  0  0  0  0
   -3.5630    0.0410    0.6030 C   0  0  0  0  0  0  0  0  0  0  0  0
   -2.5630   -1.0100   -1.6090 C   0  0  0  0  0  0  0  0  0  0  0  0
   -3.8520   -1.3100   -2.4560 C   0  0  1  0  0  0  0  0  0  0  0  0
   -5.1060    0.0300    0.3050 C   0  0  2  0  0  0  0  0  0  0  0  0
   -5.7910   -1.3800    0.2790 C   0  0  0  0  0  0  0  0  0  0  0  0
   -5.0430   -2.5580   -0.3920 C   0  0  0  0  0  0  0  0  0  0  0  0
   -4.7790   -2.4550   -1.9150 C   0  0  0  0  0  0  0  0  0  0  0  0
   -5.5990    1.0270   -0.8010 C   0  0  0  0  0  0  0  0  0  0  0  0
   -5.8240    0.4990   -2.2430 C   0  0  0  0  0  0  0  0  0  0  0  0
   -4.6120   -0.0660   -3.0300 C   0  0  0  0  0  0  0  0  0  0  0  0
    4.4900   -1.7460    0.9240 C   0  0  0  0  0  0  0  0  0  0  0  0
    4.8470   -2.1910   -0.4450 C   0  0  0  0  0  0  0  0  0  0  0  0
    5.1810   -3.9840   -2.0870 C   0  0  0  0  0  0  0  0  0  0  0  0
    4.8190   -3.5630   -0.7930 C   0  0  0  0  0  0  0  0  0  0  0  0
    5.2470   -1.2520   -1.4250 C   0  0  0  0  0  0  0  0  0  0  0  0
    5.6080   -1.6710   -2.7190 C   0  0  0  0  0  0  0  0  0  0  0  0
    5.5710   -3.0370   -3.0510 C   0  0  0  0  0  0  0  0  0  0  0  0
   -2.7830    2.8730   -0.0240 H   0  0  0  0  0  0  0  0  0  0  0  0
   -2.0490    5.1460    0.6150 H   0  0  0  0  0  0  0  0  0  0  0  0
    0.3010    5.5610    1.3230 H   0  0  0  0  0  0  0  0  0  0  0  0
    1.9360    3.6810    1.3690 H   0  0  0  0  0  0  0  0  0  0  0  0
   -0.4680   -1.4560   -0.0830 H   0  0  0  0  0  0  0  0  0  0  0  0
    3.5710    0.1550    1.2250 H   0  0  0  0  0  0  0  0  0  0  0  0
   -2.9040    1.0160   -1.2100 H   0  0  0  0  0  0  0  0  0  0  0  0
   -3.3510   -0.9430    1.0210 H   0  0  0  0  0  0  0  0  0  0  0  0
   -3.4000    0.9350    1.2050 H   0  0  0  0  0  0  0  0  0  0  0  0
   -1.8070   -0.7390   -2.3460 H   0  0  0  0  0  0  0  0  0  0  0  0
   -2.4280   -1.8970   -0.9900 H   0  0  0  0  0  0  0  0  0  0  0  0
   -3.4140   -1.7500   -3.3520 H   0  0  0  0  0  0  0  0  0  0  0  0
   -5.5060    0.4690    1.2190 H   0  0  0  0  0  0  0  0  0  0  0  0
   -5.8760   -1.6710    1.3260 H   0  0  0  0  0  0  0  0  0  0  0  0
   -6.6880   -1.2470   -0.3250 H   0  0  0  0  0  0  0  0  0  0  0  0
   -4.0550   -2.5660    0.0680 H   0  0  0  0  0  0  0  0  0  0  0  0
   -5.7050   -3.4170   -0.2760 H   0  0  0  0  0  0  0  0  0  0  0  0
   -4.2570   -3.3790   -2.1630 H   0  0  0  0  0  0  0  0  0  0  0  0
   -5.7590   -2.2500   -2.3470 H   0  0  0  0  0  0  0  0  0  0  0  0
   -6.5870    1.3470   -0.4710 H   0  0  0  0  0  0  0  0  0  0  0  0
   -4.7950    1.7560   -0.9010 H   0  0  0  0  0  0  0  0  0  0  0  0
   -6.4980   -0.3500   -2.1260 H   0  0  0  0  0  0  0  0  0  0  0  0
   -6.1410    1.3720   -2.8130 H   0  0  0  0  0  0  0  0  0  0  0  0
   -5.0340   -0.4060   -3.9750 H   0  0  0  0  0  0  0  0  0  0  0  0
   -3.8790    0.7400   -3.0190 H   0  0  0  0  0  0  0  0  0  0  0  0
    5.3540   -1.2100    1.3170 H   0  0  0  0  0  0  0  0  0  0  0  0
    4.1050   -2.6190    1.4510 H   0  0  0  0  0  0  0  0  0  0  0  0
    5.1600   -5.0430   -2.3430 H   0  0  0  0  0  0  0  0  0  0  0  0
    4.5160   -4.3050   -0.0550 H   0  0  0  0  0  0  0  0  0  0  0  0
    5.2770   -0.1900   -1.1800 H   0  0  0  0  0  0  0  0  0  0  0  0
    5.9160   -0.9380   -3.4640 H   0  0  0  0  0  0  0  0  0  0  0  0
    5.8450   -3.3610   -4.0540 H   0  0  0  0  0  0  0  0  0  0  0  0
  1  2  2  0
  1  6  1  0
  1 10  1  0
  2  3  1  0
  3  4  2  0
  4  5  1  0
  5  6  2  0
  6  7  1  0
  7  8  2  0
  8  9  1  0
  9 10  2  0
  8 11  1  0
 11 12  1  0
 11 13  2  0
 10 14  1  0
 14 15  1  0
 14 16  1  0
 16 17  1  0
 15 18  1  0
 18 19  1  0
 19 20  1  0
 20 21  1  0
 17 21  1  0
 18 22  1  0
 22 23  1  0
 23 24  1  0
 24 17  1  0
 12 25  1  0
 25 26  1  0
 28 26  1  0
 26 29  2  0
 27 28  2  0
 27 31  1  0
 29 30  1  0
 30 31  2  0
  2 32  1  0
  3 33  1  0
  4 34  1  0
  5 35  1  0
  9 36  1  0
 12 37  1  0
 14 38  1  6
 15 39  1  0
 15 40  1  0
 16 41  1  0
 16 42  1  0
 17 43  1  6
 18 44  1  1
 19 45  1  0
 19 46  1  0
 20 47  1  0
 20 48  1  0
 21 49  1  0
 21 50  1  0
 22 51  1  0
 22 52  1  0
 23 53  1  0
 23 54  1  0
 24 55  1  0
 24 56  1  0
 25 57  1  0
 25 58  1  0
 27 59  1  0
 28 60  1  0
 29 61  1  0
 30 62  1  0
 31 63  1  0
M  END
>  <_TriposChargeType>  (9) 
USER_CHARGES

>  <Activity>  (9) 
7.10

$$$$
4_7J
     RDKit          3D

 64 68  0  0  0  0  0  0  0  0999 V2000
   -0.8910    1.6870    0.3510 C   0  0  0  0  0  0  0  0  0  0  0  0
   -1.8900    2.6920    0.4490 C   0  0  0  0  0  0  0  0  0  0  0  0
   -1.5820    4.0040    0.8430 C   0  0  0  0  0  0  0  0  0  0  0  0
   -0.2640    4.3530    1.1730 C   0  0  0  0  0  0  0  0  0  0  0  0
    0.7720    3.4060    1.1210 C   0  0  0  0  0  0  0  0  0  0  0  0
    0.4360    2.0620    0.7110 C   0  0  0  0  0  0  0  0  0  0  0  0
    1.4330    1.1440    0.7120 N   0  0  0  0  0  0  0  0  0  0  0  0
    1.2470   -0.1640    0.4100 C   0  0  0  0  0  0  0  0  0  0  0  0
   -0.0520   -0.5750    0.0320 C   0  0  0  0  0  0  0  0  0  0  0  0
   -1.1370    0.3340   -0.0530 C   0  0  0  0  0  0  0  0  0  0  0  0
    2.3180   -1.0870    0.5190 C   0  0  0  0  0  0  0  0  0  0  0  0
    3.6010   -0.6990    0.8140 N   0  0  0  0  0  0  0  0  0  0  0  0
    2.0480   -2.3060    0.3930 O   0  0  0  0  0  0  0  0  0  0  0  0
   -2.4950   -0.1710   -0.5140 C   0  0  2  0  0  0  0  0  0  0  0  0
   -2.8870    0.5480   -1.8460 C   0  0  0  0  0  0  0  0  0  0  0  0
   -3.5890   -0.2080    0.6080 C   0  0  0  0  0  0  0  0  0  0  0  0
   -4.9400   -0.9670    0.3560 C   0  0  1  0  0  0  0  0  0  0  0  0
   -4.0610   -0.0350   -2.7110 C   0  0  2  0  0  0  0  0  0  0  0  0
   -5.4540    0.6610   -2.5370 C   0  0  0  0  0  0  0  0  0  0  0  0
   -5.9090    1.0590   -1.1090 C   0  0  0  0  0  0  0  0  0  0  0  0
   -6.1490   -0.0630   -0.0650 C   0  0  0  0  0  0  0  0  0  0  0  0
   -4.1120   -1.5960   -2.8370 C   0  0  0  0  0  0  0  0  0  0  0  0
   -5.0800   -2.3860   -1.9170 C   0  0  0  0  0  0  0  0  0  0  0  0
   -4.8390   -2.3430   -0.3860 C   0  0  0  0  0  0  0  0  0  0  0  0
    4.6720   -1.5440    0.9470 C   0  0  0  0  0  0  0  0  0  0  0  0
    5.5700   -1.6770   -0.1330 C   0  0  0  0  0  0  0  0  0  0  0  0
    4.9380   -2.2560    2.1420 C   0  0  0  0  0  0  0  0  0  0  0  0
    6.1310   -2.9850    2.3050 C   0  0  0  0  0  0  0  0  0  0  0  0
    7.0690   -3.0270    1.2500 C   0  0  0  0  0  0  0  0  0  0  0  0
    6.7640   -2.4070    0.0190 C   0  0  0  0  0  0  0  0  0  0  0  0
    8.2760   -3.6520    1.4080 O   0  0  0  0  0  0  0  0  0  0  0  0
    9.3140   -2.7450    1.8350 C   0  0  0  0  0  0  0  0  0  0  0  0
    6.4230   -3.7770    3.7750 Cl  0  0  0  0  0  0  0  0  0  0  0  0
   -2.9270    2.4490    0.2150 H   0  0  0  0  0  0  0  0  0  0  0  0
   -2.3700    4.7550    0.8930 H   0  0  0  0  0  0  0  0  0  0  0  0
   -0.0420    5.3770    1.4750 H   0  0  0  0  0  0  0  0  0  0  0  0
    1.7880    3.6990    1.3850 H   0  0  0  0  0  0  0  0  0  0  0  0
   -0.2210   -1.6260   -0.2020 H   0  0  0  0  0  0  0  0  0  0  0  0
    3.7700    0.2880    0.9430 H   0  0  0  0  0  0  0  0  0  0  0  0
   -2.3790   -1.2310   -0.7390 H   0  0  0  0  0  0  0  0  0  0  0  0
   -3.2320    1.5330   -1.5340 H   0  0  0  0  0  0  0  0  0  0  0  0
   -2.0030    0.4540   -2.4780 H   0  0  0  0  0  0  0  0  0  0  0  0
   -3.1200   -0.7490    1.4290 H   0  0  0  0  0  0  0  0  0  0  0  0
   -3.8810    0.8350    0.7390 H   0  0  0  0  0  0  0  0  0  0  0  0
   -5.2100   -1.2870    1.3620 H   0  0  0  0  0  0  0  0  0  0  0  0
   -3.7670    0.2770   -3.7120 H   0  0  0  0  0  0  0  0  0  0  0  0
   -5.3670    1.6060   -3.0710 H   0  0  0  0  0  0  0  0  0  0  0  0
   -6.1830   -0.0830   -2.8600 H   0  0  0  0  0  0  0  0  0  0  0  0
   -5.0810    1.6420   -0.7060 H   0  0  0  0  0  0  0  0  0  0  0  0
   -6.8860    1.5230   -1.2490 H   0  0  0  0  0  0  0  0  0  0  0  0
   -6.4360    0.4650    0.8450 H   0  0  0  0  0  0  0  0  0  0  0  0
   -6.8540   -0.7410   -0.5460 H   0  0  0  0  0  0  0  0  0  0  0  0
   -4.4770   -1.7860   -3.8460 H   0  0  0  0  0  0  0  0  0  0  0  0
   -3.1180   -1.9350   -2.5440 H   0  0  0  0  0  0  0  0  0  0  0  0
   -6.0510   -1.9110   -2.0600 H   0  0  0  0  0  0  0  0  0  0  0  0
   -4.9380   -3.4310   -2.1930 H   0  0  0  0  0  0  0  0  0  0  0  0
   -5.6410   -2.9490    0.0340 H   0  0  0  0  0  0  0  0  0  0  0  0
   -3.8000   -2.6520   -0.2650 H   0  0  0  0  0  0  0  0  0  0  0  0
    5.3400   -1.2120   -1.0910 H   0  0  0  0  0  0  0  0  0  0  0  0
    4.2110   -2.2420    2.9540 H   0  0  0  0  0  0  0  0  0  0  0  0
    7.4560   -2.4920   -0.8200 H   0  0  0  0  0  0  0  0  0  0  0  0
    9.8490   -3.1790    2.6800 H   0  0  0  0  0  0  0  0  0  0  0  0
   10.0090   -2.5750    1.0130 H   0  0  0  0  0  0  0  0  0  0  0  0
    8.8670   -1.7980    2.1350 H   0  0  0  0  0  0  0  0  0  0  0  0
  1  2  2  0
  1  6  1  0
  1 10  1  0
  2  3  1  0
  3  4  2  0
  4  5  1  0
  5  6  2  0
  6  7  1  0
  7  8  2  0
  8  9  1  0
  9 10  2  0
  8 11  1  0
 11 12  1  0
 11 13  2  0
 10 14  1  0
 14 15  1  0
 14 16  1  0
 16 17  1  0
 15 18  1  0
 18 19  1  0
 19 20  1  0
 20 21  1  0
 17 21  1  0
 18 22  1  0
 22 23  1  0
 23 24  1  0
 24 17  1  0
 12 25  1  0
 26 25  2  0
 25 27  1  0
 26 30  1  0
 27 28  2  0
 28 29  1  0
 29 30  2  0
 29 31  1  0
 31 32  1  0
 28 33  1  0
  2 34  1  0
  3 35  1  0
  4 36  1  0
  5 37  1  0
  9 38  1  0
 12 39  1  0
 14 40  1  6
 15 41  1  0
 15 42  1  0
 16 43  1  0
 16 44  1  0
 17 45  1  1
 18 46  1  6
 19 47  1  0
 19 48  1  0
 20 49  1  0
 20 50  1  0
 21 51  1  0
 21 52  1  0
 22 53  1  0
 22 54  1  0
 23 55  1  0
 23 56  1  0
 24 57  1  0
 24 58  1  0
 26 59  1  0
 27 60  1  0
 30 61  1  0
 32 62  1  0
 32 63  1  0
 32 64  1  0
M  END
>  <_TriposChargeType>  (10) 
USER_CHARGES

>  <Activity>  (10) 
4.59

$$$$
1_3H
     RDKit          3D

 38 39  0  0  0  0  0  0  0  0999 V2000
   -1.3497    4.1555    0.7159 C   0  0  0  0  0  0  0  0  0  0  0  0
   -0.0362    4.3842    1.0965 C   0  0  0  0  0  0  0  0  0  0  0  0
    0.8936    3.3305    1.1067 C   0  0  0  0  0  0  0  0  0  0  0  0
    0.5183    2.0347    0.7214 C   0  0  0  0  0  0  0  0  0  0  0  0
   -0.8229    1.7990    0.3323 C   0  0  0  0  0  0  0  0  0  0  0  0
   -1.7400    2.8743    0.3388 C   0  0  0  0  0  0  0  0  0  0  0  0
    1.4371    1.0488    0.7295 N   0  0  0  0  0  0  0  0  0  0  0  0
    1.0813   -0.1994    0.3557 C   0  0  0  0  0  0  0  0  0  0  0  0
   -0.2100   -0.5197   -0.0306 C   0  0  0  0  0  0  0  0  0  0  0  0
   -1.1827    0.4830   -0.0490 C   0  0  0  0  0  0  0  0  0  0  0  0
    2.1539   -1.2561    0.4079 C   0  0  0  0  0  0  0  0  0  0  0  0
    2.1889   -1.9481    1.7703 C   0  0  0  0  0  0  0  0  0  0  0  0
    3.2822   -3.0029    1.8293 C   0  0  0  0  0  0  0  0  0  0  0  0
   -2.0684    4.9706    0.7108 H   0  0  0  0  0  0  0  0  0  0  0  0
    0.2685    5.3872    1.3868 H   0  0  0  0  0  0  0  0  0  0  0  0
    2.3219    3.6296    1.5165 C   0  0  0  0  0  0  0  0  0  0  0  0
   -2.7757    2.7238    0.0450 H   0  0  0  0  0  0  0  0  0  0  0  0
   -2.5813    0.1252   -0.4743 C   0  0  0  0  0  0  0  0  0  0  0  0
   -0.4552   -1.5390   -0.3132 H   0  0  0  0  0  0  0  0  0  0  0  0
    1.9907   -1.9889   -0.3920 H   0  0  0  0  0  0  0  0  0  0  0  0
    3.1240   -0.7858    0.2037 H   0  0  0  0  0  0  0  0  0  0  0  0
    1.2217   -2.4213    1.9793 H   0  0  0  0  0  0  0  0  0  0  0  0
    2.3580   -1.2097    2.5637 H   0  0  0  0  0  0  0  0  0  0  0  0
    3.1216   -3.7768    1.0720 H   0  0  0  0  0  0  0  0  0  0  0  0
    3.2908   -3.4855    2.8116 H   0  0  0  0  0  0  0  0  0  0  0  0
    4.2675   -2.5564    1.6616 H   0  0  0  0  0  0  0  0  0  0  0  0
   -2.8676    0.6976   -1.3625 H   0  0  0  0  0  0  0  0  0  0  0  0
   -3.2889    0.3240    0.3371 H   0  0  0  0  0  0  0  0  0  0  0  0
   -2.6660   -0.9369   -0.7287 H   0  0  0  0  0  0  0  0  0  0  0  0
    3.2129    3.9153    0.3062 C   0  0  0  0  0  0  0  0  0  0  0  0
    4.6413    4.2201    0.7288 C   0  0  0  0  0  0  0  0  0  0  0  0
    2.7251    2.7952    2.1039 H   0  0  0  0  0  0  0  0  0  0  0  0
    2.3317    4.4922    2.1957 H   0  0  0  0  0  0  0  0  0  0  0  0
    2.8163    4.7666   -0.2603 H   0  0  0  0  0  0  0  0  0  0  0  0
    3.2178    3.0568   -0.3759 H   0  0  0  0  0  0  0  0  0  0  0  0
    4.6786    5.0988    1.3805 H   0  0  0  0  0  0  0  0  0  0  0  0
    5.2615    4.4224   -0.1499 H   0  0  0  0  0  0  0  0  0  0  0  0
    5.0799    3.3735    1.2667 H   0  0  0  0  0  0  0  0  0  0  0  0
 27 18  1  0
 29 18  1  0
 18 10  1  0
 18 28  1  0
 20 11  1  0
 35 30  1  0
 19  9  1  0
 34 30  1  0
 37 31  1  0
 10  9  1  0
 10  5  2  0
  9  8  2  0
 17  6  1  0
 21 11  1  0
 30 31  1  0
 30 16  1  0
  5  6  1  0
  5  4  1  0
  6  1  2  0
  8 11  1  0
  8  7  1  0
 11 12  1  0
 14  1  1  0
  1  2  1  0
  4  7  2  0
  4  3  1  0
 31 38  1  0
 31 36  1  0
 24 13  1  0
  2  3  2  0
  2 15  1  0
  3 16  1  0
 16 32  1  0
 16 33  1  0
 26 13  1  0
 12 13  1  0
 12 22  1  0
 12 23  1  0
 13 25  1  0
M  END
>  <_TriposChargeType>  (11) 
GASTEIGER

>  <Activity>  (11) 
4.31

$$$$
4_7G
     RDKit          3D

 62 65  0  0  0  0  0  0  0  0999 V2000
   -0.6730    1.8860    0.3240 C   0  0  0  0  0  0  0  0  0  0  0  0
   -1.5820    2.9750    0.4430 C   0  0  0  0  0  0  0  0  0  0  0  0
   -1.1650    4.2460    0.8770 C   0  0  0  0  0  0  0  0  0  0  0  0
    0.1760    4.4660    1.2250 C   0  0  0  0  0  0  0  0  0  0  0  0
    1.1010    3.4160    1.1300 C   0  0  0  0  0  0  0  0  0  0  0  0
    0.6770    2.1470    0.6880 C   0  0  0  0  0  0  0  0  0  0  0  0
    1.5910    1.1550    0.6230 N   0  0  0  0  0  0  0  0  0  0  0  0
    1.3620   -0.1240    0.2570 C   0  0  0  0  0  0  0  0  0  0  0  0
    0.0110   -0.4220   -0.0850 C   0  0  0  0  0  0  0  0  0  0  0  0
   -1.0160    0.5630   -0.1080 C   0  0  0  0  0  0  0  0  0  0  0  0
    2.4310   -1.1020    0.2070 C   0  0  0  0  0  0  0  0  0  0  0  0
    3.8410   -0.9370    0.1550 N   0  0  0  0  0  0  0  0  0  0  0  0
    1.9830   -2.2720    0.2300 O   0  0  0  0  0  0  0  0  0  0  0  0
   -2.4220    0.1940   -0.5540 C   0  0  2  0  0  0  0  0  0  0  0  0
   -3.3680    0.0510    0.6820 C   0  0  0  0  0  0  0  0  0  0  0  0
   -2.5210   -0.9700   -1.5960 C   0  0  0  0  0  0  0  0  0  0  0  0
   -3.8630   -1.1650   -2.4000 C   0  0  1  0  0  0  0  0  0  0  0  0
   -4.9250    0.1210    0.4610 C   0  0  2  0  0  0  0  0  0  0  0  0
   -5.6780   -1.2520    0.4220 C   0  0  0  0  0  0  0  0  0  0  0  0
   -5.0340   -2.4330   -0.3430 C   0  0  0  0  0  0  0  0  0  0  0  0
   -4.8460   -2.2680   -1.8710 C   0  0  0  0  0  0  0  0  0  0  0  0
   -5.4270    1.1840   -0.5780 C   0  0  0  0  0  0  0  0  0  0  0  0
   -5.7130    0.7510   -2.0410 C   0  0  0  0  0  0  0  0  0  0  0  0
   -4.5710    0.1420   -2.8990 C   0  0  0  0  0  0  0  0  0  0  0  0
    4.7770   -2.0600    0.3600 C   0  0  0  0  0  0  0  0  0  0  0  0
    4.5060    0.3710    0.0190 C   0  0  0  0  0  0  0  0  0  0  0  0
    4.0380    1.3310   -1.1110 C   0  0  0  0  0  0  0  0  0  0  0  0
    5.9130   -2.0560    1.4180 C   0  0  0  0  0  0  0  0  0  0  0  0
   -2.6330    2.8310    0.1930 H   0  0  0  0  0  0  0  0  0  0  0  0
   -1.8830    5.0620    0.9450 H   0  0  0  0  0  0  0  0  0  0  0  0
    0.4980    5.4500    1.5680 H   0  0  0  0  0  0  0  0  0  0  0  0
    2.1440    3.5850    1.3990 H   0  0  0  0  0  0  0  0  0  0  0  0
   -0.2480   -1.4490   -0.3390 H   0  0  0  0  0  0  0  0  0  0  0  0
   -2.7530    1.0520   -1.1390 H   0  0  0  0  0  0  0  0  0  0  0  0
   -3.1830   -0.9580    1.0540 H   0  0  0  0  0  0  0  0  0  0  0  0
   -3.1350    0.9130    1.3070 H   0  0  0  0  0  0  0  0  0  0  0  0
   -1.7760   -0.7250   -2.3530 H   0  0  0  0  0  0  0  0  0  0  0  0
   -2.4170   -1.8790   -1.0030 H   0  0  0  0  0  0  0  0  0  0  0  0
   -3.4770   -1.6050   -3.3200 H   0  0  0  0  0  0  0  0  0  0  0  0
   -5.2580    0.5420    1.4090 H   0  0  0  0  0  0  0  0  0  0  0  0
   -5.7120   -1.5840    1.4600 H   0  0  0  0  0  0  0  0  0  0  0  0
   -6.6050   -1.0500   -0.1160 H   0  0  0  0  0  0  0  0  0  0  0  0
   -4.0250   -2.5160    0.0600 H   0  0  0  0  0  0  0  0  0  0  0  0
   -5.7360   -3.2600   -0.2310 H   0  0  0  0  0  0  0  0  0  0  0  0
   -4.4110   -3.2140   -2.1940 H   0  0  0  0  0  0  0  0  0  0  0  0
   -5.8290   -1.9680   -2.2340 H   0  0  0  0  0  0  0  0  0  0  0  0
   -6.3960    1.5080   -0.1990 H   0  0  0  0  0  0  0  0  0  0  0  0
   -4.6090    1.8990   -0.6630 H   0  0  0  0  0  0  0  0  0  0  0  0
   -6.4450   -0.0510   -1.9510 H   0  0  0  0  0  0  0  0  0  0  0  0
   -5.9780    1.6760   -2.5540 H   0  0  0  0  0  0  0  0  0  0  0  0
   -5.0530   -0.1400   -3.8350 H   0  0  0  0  0  0  0  0  0  0  0  0
   -3.7900    0.9030   -2.8950 H   0  0  0  0  0  0  0  0  0  0  0  0
    4.1110   -2.8660    0.6700 H   0  0  0  0  0  0  0  0  0  0  0  0
    5.2900   -2.1160   -0.6000 H   0  0  0  0  0  0  0  0  0  0  0  0
    4.2720    0.8760    0.9560 H   0  0  0  0  0  0  0  0  0  0  0  0
    5.5380    0.1110   -0.2180 H   0  0  0  0  0  0  0  0  0  0  0  0
    3.0460    1.0360   -1.4510 H   0  0  0  0  0  0  0  0  0  0  0  0
    4.0030    2.3510   -0.7290 H   0  0  0  0  0  0  0  0  0  0  0  0
    4.7380    1.2790   -1.9450 H   0  0  0  0  0  0  0  0  0  0  0  0
    6.6530   -2.8120    1.1580 H   0  0  0  0  0  0  0  0  0  0  0  0
    6.3870   -1.0750    1.4380 H   0  0  0  0  0  0  0  0  0  0  0  0
    5.4950   -2.2780    2.4000 H   0  0  0  0  0  0  0  0  0  0  0  0
  1  2  2  0
  1  6  1  0
  1 10  1  0
  2  3  1  0
  3  4  2  0
  4  5  1  0
  5  6  2  0
  6  7  1  0
  7  8  2  0
  8  9  1  0
  9 10  2  0
  8 11  1  0
 11 12  1  0
 11 13  2  0
 10 14  1  0
 14 15  1  0
 14 16  1  0
 16 17  1  0
 15 18  1  0
 18 19  1  0
 19 20  1  0
 20 21  1  0
 17 21  1  0
 18 22  1  0
 22 23  1  0
 23 24  1  0
 24 17  1  0
 12 25  1  0
 12 26  1  0
 26 27  1  0
 25 28  1  0
  2 29  1  0
  3 30  1  0
  4 31  1  0
  5 32  1  0
  9 33  1  0
 14 34  1  6
 15 35  1  0
 15 36  1  0
 16 37  1  0
 16 38  1  0
 17 39  1  6
 18 40  1  1
 19 41  1  0
 19 42  1  0
 20 43  1  0
 20 44  1  0
 21 45  1  0
 21 46  1  0
 22 47  1  0
 22 48  1  0
 23 49  1  0
 23 50  1  0
 24 51  1  0
 24 52  1  0
 25 53  1  0
 25 54  1  0
 26 55  1  0
 26 56  1  0
 27 57  1  0
 27 58  1  0
 27 59  1  0
 28 60  1  0
 28 61  1  0
 28 62  1  0
M  END
>  <_TriposChargeType>  (12) 
USER_CHARGES

>  <Activity>  (12) 
3.07

$$$$
3_3E
     RDKit          3D

 55 58  0  0  0  0  0  0  0  0999 V2000
   -1.2844    4.2054    0.7285 C   0  0  0  0  0  0  0  0  0  0  0  0
    0.0142    4.3552    1.1724 C   0  0  0  0  0  0  0  0  0  0  0  0
    0.8681    3.2684    1.1165 C   0  0  0  0  0  0  0  0  0  0  0  0
    0.4487    2.0210    0.6929 C   0  0  0  0  0  0  0  0  0  0  0  0
   -0.9058    1.7819    0.3019 C   0  0  0  0  0  0  0  0  0  0  0  0
   -1.7586    2.9660    0.2388 C   0  0  0  0  0  0  0  0  0  0  0  0
    1.4240    1.1090    0.7019 N   0  0  0  0  0  0  0  0  0  0  0  0
    1.1326   -0.1482    0.3276 C   0  0  0  0  0  0  0  0  0  0  0  0
   -0.1470   -0.5477    0.0018 C   0  0  0  0  0  0  0  0  0  0  0  0
   -1.2032    0.3800    0.0347 C   0  0  0  0  0  0  0  0  0  0  0  0
    2.2363   -1.1559    0.2992 C   0  0  0  0  0  0  0  0  0  0  0  0
    2.0734   -2.3286   -0.0091 O   0  0  0  0  0  0  0  0  0  0  0  0
    3.4179   -0.5893    0.6567 O   0  0  0  0  0  0  0  0  0  0  0  0
   -1.9285    5.0823    0.7459 H   0  0  0  0  0  0  0  0  0  0  0  0
    0.3714    5.3169    1.5289 H   0  0  0  0  0  0  0  0  0  0  0  0
    1.9034    3.3987    1.4279 H   0  0  0  0  0  0  0  0  0  0  0  0
   -3.1492    3.0029   -0.3993 C   0  0  0  0  0  0  0  0  0  0  0  0
   -0.3080   -1.5855   -0.2577 H   0  0  0  0  0  0  0  0  0  0  0  0
   -2.6197   -0.1828   -0.1408 C   0  0  0  0  0  0  0  0  0  0  0  0
    4.5232   -1.4908    0.6542 C   0  0  0  0  0  0  0  0  0  0  0  0
    5.4153   -0.9350    0.9561 H   0  0  0  0  0  0  0  0  0  0  0  0
    4.6888   -1.8920   -0.3506 H   0  0  0  0  0  0  0  0  0  0  0  0
    4.3600   -2.3001    1.3728 H   0  0  0  0  0  0  0  0  0  0  0  0
   -2.9715   -1.4085    0.7427 C   0  0  0  0  0  0  0  0  0  0  0  0
   -2.7477   -2.7896    0.1278 C   0  0  0  0  0  0  0  0  0  0  0  0
   -3.2362   -2.8780   -1.3101 C   0  0  0  0  0  0  0  0  0  0  0  0
   -2.6439   -1.7718   -2.1707 C   0  0  0  0  0  0  0  0  0  0  0  0
   -2.9929   -0.3929   -1.6201 C   0  0  0  0  0  0  0  0  0  0  0  0
   -3.2869    0.5728    0.2720 H   0  0  0  0  0  0  0  0  0  0  0  0
   -4.0460   -1.3425    0.9683 H   0  0  0  0  0  0  0  0  0  0  0  0
   -2.4621   -1.3478    1.7124 H   0  0  0  0  0  0  0  0  0  0  0  0
   -1.6908   -3.0665    0.1742 H   0  0  0  0  0  0  0  0  0  0  0  0
   -3.2728   -3.5388    0.7331 H   0  0  0  0  0  0  0  0  0  0  0  0
   -2.9696   -3.8549   -1.7291 H   0  0  0  0  0  0  0  0  0  0  0  0
   -4.3311   -2.8122   -1.3297 H   0  0  0  0  0  0  0  0  0  0  0  0
   -1.5573   -1.8904   -2.2410 H   0  0  0  0  0  0  0  0  0  0  0  0
   -3.0331   -1.8606   -3.1918 H   0  0  0  0  0  0  0  0  0  0  0  0
   -2.5321    0.3722   -2.2567 H   0  0  0  0  0  0  0  0  0  0  0  0
   -4.0791   -0.2603   -1.7174 H   0  0  0  0  0  0  0  0  0  0  0  0
   -3.3138    4.1106   -1.4679 C   0  0  0  0  0  0  0  0  0  0  0  0
   -4.6996    4.0497   -2.1120 C   0  0  0  0  0  0  0  0  0  0  0  0
   -5.8075    4.1312   -1.0653 C   0  0  0  0  0  0  0  0  0  0  0  0
   -5.6454    3.0676    0.0174 C   0  0  0  0  0  0  0  0  0  0  0  0
   -4.2599    3.1201    0.6598 C   0  0  0  0  0  0  0  0  0  0  0  0
   -3.2980    2.0919   -0.9714 H   0  0  0  0  0  0  0  0  0  0  0  0
   -2.5467    3.9982   -2.2442 H   0  0  0  0  0  0  0  0  0  0  0  0
   -3.1812    5.1089   -1.0357 H   0  0  0  0  0  0  0  0  0  0  0  0
   -4.8088    4.8715   -2.8287 H   0  0  0  0  0  0  0  0  0  0  0  0
   -4.7993    3.1160   -2.6792 H   0  0  0  0  0  0  0  0  0  0  0  0
   -5.7972    5.1255   -0.6020 H   0  0  0  0  0  0  0  0  0  0  0  0
   -6.7828    4.0161   -1.5515 H   0  0  0  0  0  0  0  0  0  0  0  0
   -6.4131    3.2065    0.7869 H   0  0  0  0  0  0  0  0  0  0  0  0
   -5.8067    2.0741   -0.4191 H   0  0  0  0  0  0  0  0  0  0  0  0
   -4.1604    4.0620    1.2145 H   0  0  0  0  0  0  0  0  0  0  0  0
   -4.1749    2.3177    1.4019 H   0  0  0  0  0  0  0  0  0  0  0  0
 37 27  1  0
 48 41  1  0
 49 41  1  0
 38 28  1  0
 46 40  1  0
 36 27  1  0
 27 28  1  0
 27 26  1  0
 41 40  1  0
 41 42  1  0
 34 26  1  0
 39 28  1  0
 28 19  1  0
 51 42  1  0
 40 47  1  0
 40 17  1  0
 35 26  1  0
 26 25  1  0
 42 50  1  0
 42 43  1  0
 45 17  1  0
 53 43  1  0
 17  6  1  0
 17 44  1  0
 22 20  1  0
 18  9  1  0
 19 10  1  0
 19 29  1  0
 19 24  1  0
 12 11  2  0
  9 10  1  0
  9  8  2  0
 43 44  1  0
 43 52  1  0
 10  5  2  0
 25 32  1  0
 25 33  1  0
 25 24  1  0
  6  5  1  0
  6  1  2  0
 11  8  1  0
 11 13  1  0
  5  4  1  0
  8  7  1  0
 20 13  1  0
 20 21  1  0
 20 23  1  0
 44 54  1  0
 44 55  1  0
  4  7  2  0
  4  3  1  0
  1 14  1  0
  1  2  1  0
 24 30  1  0
 24 31  1  0
  3  2  2  0
  3 16  1  0
  2 15  1  0
M  END
>  <_TriposChargeType>  (13) 
GASTEIGER

>  <Activity>  (13) 
6.75

$$$$
2_4D
     RDKit          3D

 40 42  0  0  0  0  0  0  0  0999 V2000
   -1.3532    4.1383    0.7161 C   0  0  0  0  0  0  0  0  0  0  0  0
   -0.0349    4.3782    1.0996 C   0  0  0  0  0  0  0  0  0  0  0  0
    0.8939    3.3340    1.1005 C   0  0  0  0  0  0  0  0  0  0  0  0
    0.5184    2.0364    0.7185 C   0  0  0  0  0  0  0  0  0  0  0  0
   -0.8156    1.8057    0.3331 C   0  0  0  0  0  0  0  0  0  0  0  0
   -1.7448    2.8581    0.3339 C   0  0  0  0  0  0  0  0  0  0  0  0
    1.4408    1.0456    0.7297 N   0  0  0  0  0  0  0  0  0  0  0  0
    1.0784   -0.2059    0.3613 C   0  0  0  0  0  0  0  0  0  0  0  0
   -0.2209   -0.5069   -0.0311 C   0  0  0  0  0  0  0  0  0  0  0  0
   -1.1734    0.5075   -0.0447 C   0  0  0  0  0  0  0  0  0  0  0  0
    2.1394   -1.2962    0.3853 C   0  0  0  0  0  0  0  0  0  0  0  0
    2.6718   -1.5638    1.8040 C   0  0  0  0  0  0  0  0  0  0  0  0
    3.7325   -0.5693    2.2748 C   0  0  0  0  0  0  0  0  0  0  0  0
    2.2497    3.4896    1.4746 N   0  0  0  0  0  0  0  0  0  0  0  0
    2.9193    4.6300    1.8954 C   0  0  0  0  0  0  0  0  0  0  0  0
    2.4077    5.7438    2.0143 O   0  0  0  0  0  0  0  0  0  0  0  0
    4.8580   -0.4163    1.2589 C   0  0  0  0  0  0  0  0  0  0  0  0
    4.3306   -0.0394   -0.1201 C   0  0  0  0  0  0  0  0  0  0  0  0
    3.2764   -1.0285   -0.6164 C   0  0  0  0  0  0  0  0  0  0  0  0
    4.4055    4.3649    2.2096 C   0  0  0  0  0  0  0  0  0  0  0  0
   -2.0736    4.9531    0.7166 H   0  0  0  0  0  0  0  0  0  0  0  0
    0.2377    5.3873    1.3919 H   0  0  0  0  0  0  0  0  0  0  0  0
   -2.7771    2.6861    0.0371 H   0  0  0  0  0  0  0  0  0  0  0  0
   -0.5003   -1.5138   -0.3246 H   0  0  0  0  0  0  0  0  0  0  0  0
   -2.1911    0.2782   -0.3506 H   0  0  0  0  0  0  0  0  0  0  0  0
    1.6480   -2.2232    0.0575 H   0  0  0  0  0  0  0  0  0  0  0  0
    3.1245   -2.5646    1.8140 H   0  0  0  0  0  0  0  0  0  0  0  0
    1.8480   -1.5909    2.5279 H   0  0  0  0  0  0  0  0  0  0  0  0
    3.2771    0.4071    2.4716 H   0  0  0  0  0  0  0  0  0  0  0  0
    4.1495   -0.9112    3.2294 H   0  0  0  0  0  0  0  0  0  0  0  0
    2.7808    2.6165    1.4137 H   0  0  0  0  0  0  0  0  0  0  0  0
    5.5646    0.3468    1.6042 H   0  0  0  0  0  0  0  0  0  0  0  0
    5.4163   -1.3581    1.1900 H   0  0  0  0  0  0  0  0  0  0  0  0
    3.9175    0.9745   -0.0935 H   0  0  0  0  0  0  0  0  0  0  0  0
    5.1638   -0.0125   -0.8321 H   0  0  0  0  0  0  0  0  0  0  0  0
    2.8733   -0.6834   -1.5764 H   0  0  0  0  0  0  0  0  0  0  0  0
    3.7824   -1.9822   -0.8190 H   0  0  0  0  0  0  0  0  0  0  0  0
    5.2449    5.1068    1.4361 F   0  0  0  0  0  0  0  0  0  0  0  0
    4.7515    3.0594    2.0004 F   0  0  0  0  0  0  0  0  0  0  0  0
    4.7232    4.6368    3.5051 F   0  0  0  0  0  0  0  0  0  0  0  0
 36 19  1  0
 35 18  1  0
 37 19  1  0
 19 18  1  0
 19 11  1  0
 25 10  1  0
 24  9  1  0
 18 34  1  0
 18 17  1  0
 10  9  1  0
 10  5  2  0
  9  8  2  0
 23  6  1  0
 26 11  1  0
  5  6  1  0
  5  4  1  0
  6  1  2  0
  8 11  1  0
  8  7  1  0
 11 12  1  0
  1 21  1  0
  1  2  1  0
  4  7  2  0
  4  3  1  0
  2  3  2  0
  2 22  1  0
  3 14  1  0
 33 17  1  0
 17 32  1  0
 17 13  1  0
 31 14  1  0
 38 20  1  0
 14 15  1  0
 12 27  1  0
 12 13  1  0
 12 28  1  0
 15 16  2  0
 15 20  1  0
 39 20  1  0
 20 40  1  0
 13 29  1  0
 13 30  1  0
M  END
>  <_TriposChargeType>  (14) 
GASTEIGER

>  <Activity>  (14) 
3.71

$$$$
3_7D
     RDKit          3D

 55 58  0  0  0  0  0  0  0  0999 V2000
   -1.3168    4.1810    0.7067 C   0  0  0  0  0  0  0  0  0  0  0  0
   -0.0081    4.3798    1.1080 C   0  0  0  0  0  0  0  0  0  0  0  0
    0.8739    3.3021    1.1089 C   0  0  0  0  0  0  0  0  0  0  0  0
    0.4814    2.0270    0.7259 C   0  0  0  0  0  0  0  0  0  0  0  0
   -0.8561    1.7834    0.3348 C   0  0  0  0  0  0  0  0  0  0  0  0
   -1.7333    2.9041    0.3232 C   0  0  0  0  0  0  0  0  0  0  0  0
    1.4254    1.0820    0.7390 N   0  0  0  0  0  0  0  0  0  0  0  0
    1.1201   -0.1737    0.3323 C   0  0  0  0  0  0  0  0  0  0  0  0
   -0.1829   -0.5317   -0.0360 C   0  0  0  0  0  0  0  0  0  0  0  0
   -1.2149    0.4371   -0.0258 C   0  0  0  0  0  0  0  0  0  0  0  0
   -0.4044   -1.9136   -0.4815 C   0  0  0  0  0  0  0  0  0  0  0  0
   -0.5314   -2.2507   -1.6445 O   0  0  0  0  0  0  0  0  0  0  0  0
   -0.4202   -2.7121    0.6145 O   0  0  0  0  0  0  0  0  0  0  0  0
    2.2884   -1.1503    0.3271 C   0  0  0  0  0  0  0  0  0  0  0  0
    2.6520   -1.5618    1.7635 C   0  0  0  0  0  0  0  0  0  0  0  0
    3.8325   -2.5310    1.7854 C   0  0  0  0  0  0  0  0  0  0  0  0
    5.0435   -1.9631    1.0511 C   0  0  0  0  0  0  0  0  0  0  0  0
    4.6932   -1.5398   -0.3726 C   0  0  0  0  0  0  0  0  0  0  0  0
    3.5177   -0.5642   -0.3947 C   0  0  0  0  0  0  0  0  0  0  0  0
   -0.5823   -4.0991    0.3149 C   0  0  0  0  0  0  0  0  0  0  0  0
   -2.6673    0.1214   -0.4094 C   0  0  0  0  0  0  0  0  0  0  0  0
   -3.2912   -1.1704    0.1555 C   0  0  0  0  0  0  0  0  0  0  0  0
   -4.7804   -1.2507   -0.1881 C   0  0  0  0  0  0  0  0  0  0  0  0
   -5.0017   -1.1610   -1.6963 C   0  0  0  0  0  0  0  0  0  0  0  0
   -4.3659    0.0931   -2.2905 C   0  0  0  0  0  0  0  0  0  0  0  0
   -2.8849    0.2171   -1.9292 C   0  0  0  0  0  0  0  0  0  0  0  0
   -2.0162    5.0129    0.6859 H   0  0  0  0  0  0  0  0  0  0  0  0
    0.3343    5.3657    1.4096 H   0  0  0  0  0  0  0  0  0  0  0  0
    1.9069    3.4629    1.4110 H   0  0  0  0  0  0  0  0  0  0  0  0
   -2.7656    2.8129   -0.0019 H   0  0  0  0  0  0  0  0  0  0  0  0
    2.0193   -2.0567   -0.2270 H   0  0  0  0  0  0  0  0  0  0  0  0
    1.7909   -2.0314    2.2543 H   0  0  0  0  0  0  0  0  0  0  0  0
    2.9047   -0.6758    2.3609 H   0  0  0  0  0  0  0  0  0  0  0  0
    4.1037   -2.7572    2.8227 H   0  0  0  0  0  0  0  0  0  0  0  0
    3.5342   -3.4784    1.3196 H   0  0  0  0  0  0  0  0  0  0  0  0
    5.4311   -1.0980    1.6031 H   0  0  0  0  0  0  0  0  0  0  0  0
    5.8440   -2.7110    1.0268 H   0  0  0  0  0  0  0  0  0  0  0  0
    5.5664   -1.0750   -0.8441 H   0  0  0  0  0  0  0  0  0  0  0  0
    4.4433   -2.4271   -0.9673 H   0  0  0  0  0  0  0  0  0  0  0  0
    3.8330    0.3760    0.0760 H   0  0  0  0  0  0  0  0  0  0  0  0
    3.2625   -0.3241   -1.4343 H   0  0  0  0  0  0  0  0  0  0  0  0
   -1.5355   -4.2750   -0.1931 H   0  0  0  0  0  0  0  0  0  0  0  0
   -0.5852   -4.6511    1.2587 H   0  0  0  0  0  0  0  0  0  0  0  0
    0.2534   -4.4579   -0.2941 H   0  0  0  0  0  0  0  0  0  0  0  0
   -3.2907    0.8956    0.0502 H   0  0  0  0  0  0  0  0  0  0  0  0
   -3.1604   -1.2107    1.2433 H   0  0  0  0  0  0  0  0  0  0  0  0
   -2.8248   -2.0638   -0.2619 H   0  0  0  0  0  0  0  0  0  0  0  0
   -5.1944   -2.1928    0.1888 H   0  0  0  0  0  0  0  0  0  0  0  0
   -5.3213   -0.4395    0.3142 H   0  0  0  0  0  0  0  0  0  0  0  0
   -4.5748   -2.0482   -2.1802 H   0  0  0  0  0  0  0  0  0  0  0  0
   -6.0761   -1.1662   -1.9116 H   0  0  0  0  0  0  0  0  0  0  0  0
   -4.4783    0.0819   -3.3806 H   0  0  0  0  0  0  0  0  0  0  0  0
   -4.9018    0.9780   -1.9254 H   0  0  0  0  0  0  0  0  0  0  0  0
   -2.3229   -0.5680   -2.4473 H   0  0  0  0  0  0  0  0  0  0  0  0
   -2.5063    1.1731   -2.3112 H   0  0  0  0  0  0  0  0  0  0  0  0
 52 25  1  0
 54 26  1  0
 55 26  1  0
 25 26  1  0
 25 53  1  0
 25 24  1  0
 50 24  1  0
 26 21  1  0
 51 24  1  0
 24 23  1  0
 12 11  2  0
 41 19  1  0
 39 18  1  0
 38 18  1  0
 11  9  1  0
 11 13  1  0
 21 10  1  0
 21 45  1  0
 21 22  1  0
 19 18  1  0
 19 40  1  0
 19 14  1  0
 18 17  1  0
 44 20  1  0
 47 22  1  0
 31 14  1  0
 42 20  1  0
 23 22  1  0
 23 48  1  0
 23 49  1  0
  9 10  1  0
  9  8  2  0
 10  5  2  0
 30  6  1  0
 22 46  1  0
 20 13  1  0
 20 43  1  0
  6  5  1  0
  6  1  2  0
 14  8  1  0
 14 15  1  0
  8  7  1  0
  5  4  1  0
 27  1  1  0
  1  2  1  0
  4  7  2  0
  4  3  1  0
 37 17  1  0
 17 36  1  0
 17 16  1  0
  2  3  2  0
  2 28  1  0
  3 29  1  0
 35 16  1  0
 15 16  1  0
 15 32  1  0
 15 33  1  0
 16 34  1  0
M  END
>  <_TriposChargeType>  (15) 
GASTEIGER

>  <Activity>  (15) 
6.03

$$$$
4_5C
     RDKit          3D

 42 44  0  0  0  0  0  0  0  0999 V2000
   -1.3362    4.1632    0.7208 C   0  0  0  0  0  0  0  0  0  0  0  0
   -0.0204    4.3756    1.1032 C   0  0  0  0  0  0  0  0  0  0  0  0
    0.8802    3.3094    1.0948 C   0  0  0  0  0  0  0  0  0  0  0  0
    0.5007    2.0294    0.7148 C   0  0  0  0  0  0  0  0  0  0  0  0
   -0.8382    1.7972    0.3285 C   0  0  0  0  0  0  0  0  0  0  0  0
   -1.7436    2.8864    0.3352 C   0  0  0  0  0  0  0  0  0  0  0  0
    1.4330    1.0639    0.7342 N   0  0  0  0  0  0  0  0  0  0  0  0
    1.0948   -0.1899    0.3600 C   0  0  0  0  0  0  0  0  0  0  0  0
   -0.1960   -0.5185   -0.0307 C   0  0  0  0  0  0  0  0  0  0  0  0
   -1.1855    0.4742   -0.0441 C   0  0  0  0  0  0  0  0  0  0  0  0
   -2.5923    0.0842   -0.4470 C   0  0  0  0  0  0  0  0  0  0  0  0
   -3.6120    0.1526    0.6763 C   0  0  0  0  0  0  0  0  0  0  0  0
   -4.7229    0.6606    0.5205 O   0  0  0  0  0  0  0  0  0  0  0  0
   -3.2251   -0.4582    1.8620 N   0  0  0  0  0  0  0  0  0  0  0  0
   -4.0985   -0.4404    2.9706 N   0  0  0  0  0  0  0  0  0  0  0  0
    2.1835   -1.2457    0.3840 C   0  0  0  0  0  0  0  0  0  0  0  0
    2.7226   -1.4497    1.8091 C   0  0  0  0  0  0  0  0  0  0  0  0
    3.8399   -2.4907    1.8402 C   0  0  0  0  0  0  0  0  0  0  0  0
    4.9623   -2.1410    0.8673 C   0  0  0  0  0  0  0  0  0  0  0  0
    4.4354   -1.9321   -0.5494 C   0  0  0  0  0  0  0  0  0  0  0  0
    3.3202   -0.8891   -0.5876 C   0  0  0  0  0  0  0  0  0  0  0  0
   -2.0465    4.9862    0.7198 H   0  0  0  0  0  0  0  0  0  0  0  0
    0.3117    5.3650    1.4058 H   0  0  0  0  0  0  0  0  0  0  0  0
    1.9121    3.4817    1.3928 H   0  0  0  0  0  0  0  0  0  0  0  0
   -2.7816    2.7588    0.0358 H   0  0  0  0  0  0  0  0  0  0  0  0
   -0.4295   -1.5385   -0.3238 H   0  0  0  0  0  0  0  0  0  0  0  0
   -2.6152   -0.9384   -0.8437 H   0  0  0  0  0  0  0  0  0  0  0  0
   -2.9212    0.7351   -1.2661 H   0  0  0  0  0  0  0  0  0  0  0  0
   -2.2639   -0.7662    2.0016 H   0  0  0  0  0  0  0  0  0  0  0  0
   -5.0488   -0.5830    2.6042 H   0  0  0  0  0  0  0  0  0  0  0  0
   -4.1284    0.5221    3.3232 H   0  0  0  0  0  0  0  0  0  0  0  0
    1.7521   -2.2007    0.0528 H   0  0  0  0  0  0  0  0  0  0  0  0
    1.9117   -1.7667    2.4766 H   0  0  0  0  0  0  0  0  0  0  0  0
    3.1066   -0.5036    2.2127 H   0  0  0  0  0  0  0  0  0  0  0  0
    4.2436   -2.5673    2.8561 H   0  0  0  0  0  0  0  0  0  0  0  0
    3.4286   -3.4751    1.5849 H   0  0  0  0  0  0  0  0  0  0  0  0
    5.4673   -1.2281    1.2066 H   0  0  0  0  0  0  0  0  0  0  0  0
    5.7124   -2.9398    0.8675 H   0  0  0  0  0  0  0  0  0  0  0  0
    5.2556   -1.6182   -1.2049 H   0  0  0  0  0  0  0  0  0  0  0  0
    4.0584   -2.8840   -0.9431 H   0  0  0  0  0  0  0  0  0  0  0  0
    3.7431    0.0931   -0.3389 H   0  0  0  0  0  0  0  0  0  0  0  0
    2.9307   -0.8106   -1.6102 H   0  0  0  0  0  0  0  0  0  0  0  0
 42 21  1  0
 28 11  1  0
 39 20  1  0
 40 20  1  0
 27 11  1  0
 21 20  1  0
 21 41  1  0
 21 16  1  0
 20 19  1  0
 11 10  1  0
 11 12  1  0
 26  9  1  0
 10  9  1  0
 10  5  2  0
  9  8  2  0
 25  6  1  0
 32 16  1  0
  5  6  1  0
  5  4  1  0
  6  1  2  0
  8 16  1  0
  8  7  1  0
 16 17  1  0
 13 12  2  0
 12 14  1  0
  4  7  2  0
  4  3  1  0
 22  1  1  0
  1  2  1  0
 19 38  1  0
 19 37  1  0
 19 18  1  0
  3  2  2  0
  3 24  1  0
  2 23  1  0
 36 18  1  0
 17 18  1  0
 17 34  1  0
 17 33  1  0
 18 35  1  0
 14 29  1  0
 14 15  1  0
 30 15  1  0
 15 31  1  0
M  END
>  <_TriposChargeType>  (16) 
GASTEIGER

>  <Activity>  (16) 
3.79

$$$$
3_3G
     RDKit          3D

 47 51  0  0  0  0  0  0  0  0999 V2000
   -1.3158    4.1763    0.7337 C   0  0  0  0  0  0  0  0  0  0  0  0
   -0.0008    4.3766    1.1072 C   0  0  0  0  0  0  0  0  0  0  0  0
    0.8794    3.2990    1.0886 C   0  0  0  0  0  0  0  0  0  0  0  0
    0.4817    2.0255    0.7067 C   0  0  0  0  0  0  0  0  0  0  0  0
   -0.8643    1.7779    0.3152 C   0  0  0  0  0  0  0  0  0  0  0  0
   -1.7369    2.9012    0.3457 C   0  0  0  0  0  0  0  0  0  0  0  0
    1.4336    1.0913    0.7375 N   0  0  0  0  0  0  0  0  0  0  0  0
    1.1012   -0.1636    0.3760 C   0  0  0  0  0  0  0  0  0  0  0  0
   -0.1782   -0.5251   -0.0238 C   0  0  0  0  0  0  0  0  0  0  0  0
   -1.2113    0.4319   -0.0699 C   0  0  0  0  0  0  0  0  0  0  0  0
    2.1683   -1.2120    0.4093 C   0  0  0  0  0  0  0  0  0  0  0  0
    1.9781   -2.3814    0.1045 O   0  0  0  0  0  0  0  0  0  0  0  0
    3.3517   -0.6850    0.8179 O   0  0  0  0  0  0  0  0  0  0  0  0
   -2.0200    5.0045    0.7410 H   0  0  0  0  0  0  0  0  0  0  0  0
    0.3453    5.3602    1.4118 H   0  0  0  0  0  0  0  0  0  0  0  0
    1.9152    3.4586    1.3831 H   0  0  0  0  0  0  0  0  0  0  0  0
   -2.7803    2.8164    0.0657 H   0  0  0  0  0  0  0  0  0  0  0  0
   -0.3353   -1.5638   -0.2934 H   0  0  0  0  0  0  0  0  0  0  0  0
   -2.6303   -0.0149   -0.5241 C   0  0  1  0  0  0  0  0  0  0  0  0
    4.4227   -1.6254    0.8746 C   0  0  0  0  0  0  0  0  0  0  0  0
    4.6198   -2.0425   -0.1180 H   0  0  0  0  0  0  0  0  0  0  0  0
    4.1973   -2.4209    1.5917 H   0  0  0  0  0  0  0  0  0  0  0  0
    5.3194   -1.0988    1.2127 H   0  0  0  0  0  0  0  0  0  0  0  0
   -3.6735    0.1976    0.6144 C   0  0  0  0  0  0  0  0  0  0  0  0
   -5.0931   -0.1764    0.1539 C   0  0  1  0  0  0  0  0  0  0  0  0
   -5.4642    0.6537   -1.0860 C   0  0  0  0  0  0  0  0  0  0  0  0
   -4.4935    0.3535   -2.2400 C   0  0  1  0  0  0  0  0  0  0  0  0
   -3.0640    0.7365   -1.8191 C   0  0  0  0  0  0  0  0  0  0  0  0
   -5.1327   -1.6685   -0.1980 C   0  0  0  0  0  0  0  0  0  0  0  0
   -4.1416   -1.9551   -1.3322 C   0  0  1  0  0  0  0  0  0  0  0  0
   -4.5382   -1.1432   -2.5709 C   0  0  0  0  0  0  0  0  0  0  0  0
   -3.6996    1.2275    0.9748 H   0  0  0  0  0  0  0  0  0  0  0  0
   -2.7256   -1.5449   -0.8868 C   0  0  0  0  0  0  0  0  0  0  0  0
   -3.3970   -0.4085    1.4883 H   0  0  0  0  0  0  0  0  0  0  0  0
   -5.8057    0.0278    0.9612 H   0  0  0  0  0  0  0  0  0  0  0  0
   -5.4394    1.7231   -0.8431 H   0  0  0  0  0  0  0  0  0  0  0  0
   -6.4909    0.4213   -1.3947 H   0  0  0  0  0  0  0  0  0  0  0  0
   -4.7821    0.9322   -3.1248 H   0  0  0  0  0  0  0  0  0  0  0  0
   -3.0277    1.8217   -1.7083 H   0  0  0  0  0  0  0  0  0  0  0  0
   -2.3644    0.5046   -2.6340 H   0  0  0  0  0  0  0  0  0  0  0  0
   -6.1466   -1.9577   -0.5006 H   0  0  0  0  0  0  0  0  0  0  0  0
   -4.8803   -2.2703    0.6837 H   0  0  0  0  0  0  0  0  0  0  0  0
   -4.1570   -3.0242   -1.5727 H   0  0  0  0  0  0  0  0  0  0  0  0
   -5.5451   -1.4264   -2.9013 H   0  0  0  0  0  0  0  0  0  0  0  0
   -3.8567   -1.3660   -3.4011 H   0  0  0  0  0  0  0  0  0  0  0  0
   -2.0262   -1.7890   -1.6978 H   0  0  0  0  0  0  0  0  0  0  0  0
   -2.4459   -2.1604   -0.0211 H   0  0  0  0  0  0  0  0  0  0  0  0
 45 31  1  0
 27 38  1  6
 44 31  1  0
 40 28  1  0
 31 27  1  0
 31 30  1  0
 27 28  1  0
 27 26  1  0
 28 39  1  0
 28 19  1  0
 46 33  1  0
 30 43  1  6
 37 26  1  0
 30 33  1  0
 30 29  1  0
 26 36  1  0
 26 25  1  0
 33 19  1  0
 33 47  1  0
 19 10  1  1
 19 24  1  0
 41 29  1  0
 18  9  1  0
 29 25  1  0
 29 42  1  0
 21 20  1  0
 10  9  1  0
 10  5  2  0
  9  8  2  0
 17  6  1  0
 12 11  2  0
 25 24  1  0
 25 35  1  1
  5  6  1  0
  5  4  1  0
  6  1  2  0
  8 11  1  0
  8  7  1  0
 11 13  1  0
 24 32  1  0
 24 34  1  0
  4  7  2  0
  4  3  1  0
  1 14  1  0
  1  2  1  0
 13 20  1  0
 20 23  1  0
 20 22  1  0
  3  2  2  0
  3 16  1  0
  2 15  1  0
M  END
>  <_TriposChargeType>  (17) 
GASTEIGER

>  <Activity>  (17) 
4.42

$$$$
3_11B
     RDKit          3D

 49 52  0  0  0  0  0  0  0  0999 V2000
   -1.3541    4.1582    0.7397 C   0  0  0  0  0  0  0  0  0  0  0  0
   -0.0378    4.3822    1.1128 C   0  0  0  0  0  0  0  0  0  0  0  0
    0.9045    3.3386    1.0799 C   0  0  0  0  0  0  0  0  0  0  0  0
    0.5104    2.0412    0.7032 C   0  0  0  0  0  0  0  0  0  0  0  0
   -0.8268    1.8075    0.3156 C   0  0  0  0  0  0  0  0  0  0  0  0
   -1.7448    2.8856    0.3409 C   0  0  0  0  0  0  0  0  0  0  0  0
    1.4177    1.0447    0.7297 N   0  0  0  0  0  0  0  0  0  0  0  0
    1.0778   -0.2153    0.3806 C   0  0  0  0  0  0  0  0  0  0  0  0
   -0.1998   -0.5338   -0.0287 C   0  0  0  0  0  0  0  0  0  0  0  0
   -1.1584    0.4820   -0.0567 C   0  0  0  0  0  0  0  0  0  0  0  0
   -2.5226    0.1236   -0.5166 C   0  0  0  0  0  0  0  0  0  0  0  0
   -3.1957    0.7856   -1.2872 O   0  0  0  0  0  0  0  0  0  0  0  0
   -2.8943   -1.0423    0.0729 O   0  0  0  0  0  0  0  0  0  0  0  0
    2.1611   -1.2704    0.4271 C   0  0  0  0  0  0  0  0  0  0  0  0
    3.2320   -1.0317   -0.6543 C   0  0  0  0  0  0  0  0  0  0  0  0
    4.5726   -1.1304    0.0636 C   0  0  0  0  0  0  0  0  0  0  0  0
    4.2678   -0.6434    1.4687 C   0  0  0  0  0  0  0  0  0  0  0  0
    2.9192   -1.2831    1.7673 C   0  0  0  0  0  0  0  0  0  0  0  0
    2.3460    3.5907    1.5077 C   0  0  0  0  0  0  0  0  0  0  0  0
   -4.2090   -1.4746   -0.2805 C   0  0  0  0  0  0  0  0  0  0  0  0
    2.9426    4.9664    1.1361 C   0  0  0  0  0  0  0  0  0  0  0  0
    3.1713    5.6852    2.4596 C   0  0  0  0  0  0  0  0  0  0  0  0
    3.4988    4.5552    3.4196 C   0  0  0  0  0  0  0  0  0  0  0  0
    2.4994    3.4740    3.0360 C   0  0  0  0  0  0  0  0  0  0  0  0
   -2.0765    4.9703    0.7607 H   0  0  0  0  0  0  0  0  0  0  0  0
    0.2465    5.3796    1.4384 H   0  0  0  0  0  0  0  0  0  0  0  0
   -2.7853    2.7446    0.0550 H   0  0  0  0  0  0  0  0  0  0  0  0
   -0.4501   -1.5472   -0.3252 H   0  0  0  0  0  0  0  0  0  0  0  0
    1.7058   -2.2586    0.2824 H   0  0  0  0  0  0  0  0  0  0  0  0
    3.1354   -0.0426   -1.1186 H   0  0  0  0  0  0  0  0  0  0  0  0
    3.1606   -1.7712   -1.4592 H   0  0  0  0  0  0  0  0  0  0  0  0
    5.3492   -0.5352   -0.4253 H   0  0  0  0  0  0  0  0  0  0  0  0
    4.9087   -2.1738    0.0894 H   0  0  0  0  0  0  0  0  0  0  0  0
    4.1869    0.4495    1.4862 H   0  0  0  0  0  0  0  0  0  0  0  0
    5.0358   -0.9417    2.1879 H   0  0  0  0  0  0  0  0  0  0  0  0
    2.3949   -0.7779    2.5850 H   0  0  0  0  0  0  0  0  0  0  0  0
    3.0814   -2.3235    2.0773 H   0  0  0  0  0  0  0  0  0  0  0  0
    2.9964    2.8495    1.0252 H   0  0  0  0  0  0  0  0  0  0  0  0
   -4.9527   -0.7344    0.0308 H   0  0  0  0  0  0  0  0  0  0  0  0
   -4.4108   -2.4111    0.2467 H   0  0  0  0  0  0  0  0  0  0  0  0
   -4.2741   -1.6618   -1.3570 H   0  0  0  0  0  0  0  0  0  0  0  0
    2.3408    5.5571    0.4396 H   0  0  0  0  0  0  0  0  0  0  0  0
    3.9154    4.8094    0.6514 H   0  0  0  0  0  0  0  0  0  0  0  0
    2.2573    6.2007    2.7763 H   0  0  0  0  0  0  0  0  0  0  0  0
    3.9759    6.4233    2.3961 H   0  0  0  0  0  0  0  0  0  0  0  0
    3.4032    4.8562    4.4666 H   0  0  0  0  0  0  0  0  0  0  0  0
    4.5231    4.2001    3.2557 H   0  0  0  0  0  0  0  0  0  0  0  0
    1.5492    3.6582    3.5530 H   0  0  0  0  0  0  0  0  0  0  0  0
    2.8435    2.4781    3.3349 H   0  0  0  0  0  0  0  0  0  0  0  0
 31 15  1  0
 41 20  1  0
 12 11  2  0
 30 15  1  0
 15 16  1  0
 15 14  1  0
 11 10  1  0
 11 13  1  0
 32 16  1  0
 28  9  1  0
 20 39  1  0
 20 13  1  0
 20 40  1  0
 10  9  1  0
 10  5  2  0
  9  8  2  0
 27  6  1  0
 16 33  1  0
 16 17  1  0
 29 14  1  0
  5  6  1  0
  5  4  1  0
  6  1  2  0
  8 14  1  0
  8  7  1  0
 14 18  1  0
 42 21  1  0
 43 21  1  0
  4  7  2  0
  4  3  1  0
  1 25  1  0
  1  2  1  0
 38 19  1  0
  3  2  2  0
  3 19  1  0
  2 26  1  0
 21 19  1  0
 21 22  1  0
 17 34  1  0
 17 18  1  0
 17 35  1  0
 19 24  1  0
 18 37  1  0
 18 36  1  0
 45 22  1  0
 22 44  1  0
 22 23  1  0
 24 49  1  0
 24 23  1  0
 24 48  1  0
 47 23  1  0
 23 46  1  0
M  END
>  <_TriposChargeType>  (18) 
GASTEIGER

>  <Activity>  (18) 
4.50

$$$$
2_2G
     RDKit          3D

 45 48  0  0  0  0  0  0  0  0999 V2000
   -1.3389    4.1807    0.7108 C   0  0  0  0  0  0  0  0  0  0  0  0
   -0.0325    4.4042    1.1040 C   0  0  0  0  0  0  0  0  0  0  0  0
    0.8542    3.3218    1.0994 C   0  0  0  0  0  0  0  0  0  0  0  0
    0.5142    2.0231    0.7270 C   0  0  0  0  0  0  0  0  0  0  0  0
   -0.8277    1.7918    0.3398 C   0  0  0  0  0  0  0  0  0  0  0  0
   -1.7287    2.8933    0.3332 C   0  0  0  0  0  0  0  0  0  0  0  0
    1.4373    1.0402    0.7330 N   0  0  0  0  0  0  0  0  0  0  0  0
    1.0981   -0.2048    0.3408 C   0  0  0  0  0  0  0  0  0  0  0  0
   -0.1949   -0.5228   -0.0424 C   0  0  0  0  0  0  0  0  0  0  0  0
   -1.1923    0.4636   -0.0287 C   0  0  0  0  0  0  0  0  0  0  0  0
    2.1783   -1.2652    0.3616 C   0  0  0  0  0  0  0  0  0  0  0  0
    3.4829   -0.8029   -0.3131 C   0  0  0  0  0  0  0  0  0  0  0  0
    4.4447   -0.5197    0.8323 C   0  0  0  0  0  0  0  0  0  0  0  0
    2.2128    3.5793    1.5039 N   0  0  0  0  0  4  0  0  0  0  0  0
    2.4699    3.4741    2.7117 O   0  0  0  0  0  1  0  0  0  0  0  0
    2.9948    3.9757    0.6278 O   0  0  0  0  0  0  0  0  0  0  0  0
    4.0899   -1.5912    1.8476 C   0  0  0  0  0  0  0  0  0  0  0  0
    2.5675   -1.6438    1.8033 C   0  0  0  0  0  0  0  0  0  0  0  0
   -2.0574    4.9970    0.6934 H   0  0  0  0  0  0  0  0  0  0  0  0
    0.2942    5.3969    1.4027 H   0  0  0  0  0  0  0  0  0  0  0  0
   -2.7628    2.7658    0.0210 H   0  0  0  0  0  0  0  0  0  0  0  0
   -0.4152   -1.5382   -0.3559 H   0  0  0  0  0  0  0  0  0  0  0  0
   -2.6122    0.1069   -0.4540 C   0  0  0  0  0  0  0  0  0  0  0  0
    1.8172   -2.1553   -0.1694 H   0  0  0  0  0  0  0  0  0  0  0  0
    3.3649    0.0598   -0.9766 H   0  0  0  0  0  0  0  0  0  0  0  0
    3.8849   -1.6263   -0.9175 H   0  0  0  0  0  0  0  0  0  0  0  0
    4.2630    0.4777    1.2490 H   0  0  0  0  0  0  0  0  0  0  0  0
    5.4908   -0.5750    0.5181 H   0  0  0  0  0  0  0  0  0  0  0  0
    4.4677   -1.3604    2.8477 H   0  0  0  0  0  0  0  0  0  0  0  0
    4.5080   -2.5572    1.5400 H   0  0  0  0  0  0  0  0  0  0  0  0
    2.1539   -0.9428    2.5387 H   0  0  0  0  0  0  0  0  0  0  0  0
    2.1996   -2.6407    2.0692 H   0  0  0  0  0  0  0  0  0  0  0  0
   -3.0899   -1.3361   -0.1702 C   0  0  0  0  0  0  0  0  0  0  0  0
   -3.2077   -2.0028   -1.5340 C   0  0  0  0  0  0  0  0  0  0  0  0
   -3.6531   -0.8648   -2.4347 C   0  0  0  0  0  0  0  0  0  0  0  0
   -2.7965    0.3052   -1.9716 C   0  0  0  0  0  0  0  0  0  0  0  0
   -3.3140    0.7471    0.0927 H   0  0  0  0  0  0  0  0  0  0  0  0
   -4.0906   -1.2926    0.2808 H   0  0  0  0  0  0  0  0  0  0  0  0
   -2.4641   -1.9037    0.5240 H   0  0  0  0  0  0  0  0  0  0  0  0
   -3.9208   -2.8321   -1.5291 H   0  0  0  0  0  0  0  0  0  0  0  0
   -2.2344   -2.3882   -1.8585 H   0  0  0  0  0  0  0  0  0  0  0  0
   -4.7147   -0.6438   -2.2726 H   0  0  0  0  0  0  0  0  0  0  0  0
   -3.5086   -1.0906   -3.4951 H   0  0  0  0  0  0  0  0  0  0  0  0
   -3.2687    1.2660   -2.2021 H   0  0  0  0  0  0  0  0  0  0  0  0
   -1.8355    0.2812   -2.5010 H   0  0  0  0  0  0  0  0  0  0  0  0
 43 35  1  0
 45 36  1  0
 35 42  1  0
 35 36  1  0
 35 34  1  0
 44 36  1  0
 36 23  1  0
 41 34  1  0
 34 40  1  0
 34 33  1  0
 25 12  1  0
 26 12  1  0
 23 33  1  0
 23 10  1  0
 23 37  1  0
 22  9  1  0
 12 11  1  0
 12 13  1  0
 33 38  1  0
 33 39  1  0
 24 11  1  0
  9 10  1  0
  9  8  2  0
 10  5  2  0
 21  6  1  0
  6  5  1  0
  6  1  2  0
  5  4  1  0
  8 11  1  0
  8  7  1  0
 11 18  1  0
 28 13  1  0
 16 14  2  0
 19  1  1  0
  1  2  1  0
  4  7  2  0
  4  3  1  0
 13 27  1  0
 13 17  1  0
  3  2  2  0
  3 14  1  0
  2 20  1  0
 14 15  1  0
 30 17  1  0
 18 17  1  0
 18 32  1  0
 18 31  1  0
 17 29  1  0
M  CHG  2  14   1  15  -1
M  END
>  <_TriposChargeType>  (19) 
GASTEIGER

>  <Activity>  (19) 
6.08

$$$$
3_3D
     RDKit          3D

 39 41  0  0  0  0  0  0  0  0999 V2000
   -1.3293    4.1657    0.7309 C   0  0  0  0  0  0  0  0  0  0  0  0
   -0.0123    4.3749    1.1043 C   0  0  0  0  0  0  0  0  0  0  0  0
    0.8818    3.3056    1.0890 C   0  0  0  0  0  0  0  0  0  0  0  0
    0.4960    2.0279    0.7090 C   0  0  0  0  0  0  0  0  0  0  0  0
   -0.8479    1.7894    0.3195 C   0  0  0  0  0  0  0  0  0  0  0  0
   -1.7432    2.8897    0.3436 C   0  0  0  0  0  0  0  0  0  0  0  0
    1.4387    1.0782    0.7355 N   0  0  0  0  0  0  0  0  0  0  0  0
    1.0904   -0.1775    0.3739 C   0  0  0  0  0  0  0  0  0  0  0  0
   -0.1917   -0.5232   -0.0244 C   0  0  0  0  0  0  0  0  0  0  0  0
   -1.1937    0.4602   -0.0645 C   0  0  0  0  0  0  0  0  0  0  0  0
    2.1420   -1.2398    0.4073 C   0  0  0  0  0  0  0  0  0  0  0  0
    1.9347   -2.4062    0.1017 O   0  0  0  0  0  0  0  0  0  0  0  0
    3.3322   -0.7297    0.8172 O   0  0  0  0  0  0  0  0  0  0  0  0
   -2.0380    4.9901    0.7394 H   0  0  0  0  0  0  0  0  0  0  0  0
    0.3248    5.3622    1.4080 H   0  0  0  0  0  0  0  0  0  0  0  0
    1.9154    3.4748    1.3847 H   0  0  0  0  0  0  0  0  0  0  0  0
   -2.7857    2.7794    0.0628 H   0  0  0  0  0  0  0  0  0  0  0  0
   -0.4039   -1.5530   -0.2992 H   0  0  0  0  0  0  0  0  0  0  0  0
   -2.5965    0.0519   -0.5088 C   0  0  0  0  0  0  0  0  0  0  0  0
    4.3896   -1.6852    0.8746 C   0  0  0  0  0  0  0  0  0  0  0  0
    4.1526   -2.4772    1.5920 H   0  0  0  0  0  0  0  0  0  0  0  0
    5.2937   -1.1714    1.2128 H   0  0  0  0  0  0  0  0  0  0  0  0
    4.5812   -2.1057   -0.1177 H   0  0  0  0  0  0  0  0  0  0  0  0
   -3.2380   -0.9418    0.4781 C   0  0  0  0  0  0  0  0  0  0  0  0
   -4.6457   -1.3387    0.0355 C   0  0  0  0  0  0  0  0  0  0  0  0
   -4.6560   -1.8857   -1.3890 C   0  0  0  0  0  0  0  0  0  0  0  0
   -4.0215   -0.9077   -2.3737 C   0  0  0  0  0  0  0  0  0  0  0  0
   -2.6097   -0.5118   -1.9434 C   0  0  0  0  0  0  0  0  0  0  0  0
   -3.2489    0.9288   -0.5282 H   0  0  0  0  0  0  0  0  0  0  0  0
   -3.2853   -0.4976    1.4802 H   0  0  0  0  0  0  0  0  0  0  0  0
   -2.6285   -1.8498    0.5672 H   0  0  0  0  0  0  0  0  0  0  0  0
   -5.0485   -2.0918    0.7222 H   0  0  0  0  0  0  0  0  0  0  0  0
   -5.3070   -0.4655    0.0963 H   0  0  0  0  0  0  0  0  0  0  0  0
   -4.1108   -2.8372   -1.4179 H   0  0  0  0  0  0  0  0  0  0  0  0
   -5.6866   -2.0988   -1.6941 H   0  0  0  0  0  0  0  0  0  0  0  0
   -3.9889   -1.3591   -3.3717 H   0  0  0  0  0  0  0  0  0  0  0  0
   -4.6458   -0.0090   -2.4501 H   0  0  0  0  0  0  0  0  0  0  0  0
   -1.9605   -1.3922   -2.0248 H   0  0  0  0  0  0  0  0  0  0  0  0
   -2.2132    0.2348   -2.6427 H   0  0  0  0  0  0  0  0  0  0  0  0
 36 27  1  0
 39 28  1  0
 37 27  1  0
 27 28  1  0
 27 26  1  0
 38 28  1  0
 28 19  1  0
 35 26  1  0
 34 26  1  0
 26 25  1  0
 29 19  1  0
 19 10  1  0
 19 24  1  0
 18  9  1  0
 23 20  1  0
 10  9  1  0
 10  5  2  0
  9  8  2  0
 25 33  1  0
 25 24  1  0
 25 32  1  0
 17  6  1  0
 12 11  2  0
  5  6  1  0
  5  4  1  0
  6  1  2  0
  8 11  1  0
  8  7  1  0
 11 13  1  0
 24 31  1  0
 24 30  1  0
  4  7  2  0
  4  3  1  0
  1 14  1  0
  1  2  1  0
 13 20  1  0
 20 22  1  0
 20 21  1  0
  3  2  2  0
  3 16  1  0
  2 15  1  0
M  END
>  <_TriposChargeType>  (20) 
GASTEIGER

>  <Activity>  (20) 
3.88

$$$$
4_7I
     RDKit          3D

 64 68  0  0  0  0  0  0  0  0999 V2000
   -0.8070    1.7830    0.2650 C   0  0  0  0  0  0  0  0  0  0  0  0
   -1.7810    2.8100    0.3820 C   0  0  0  0  0  0  0  0  0  0  0  0
   -1.4360    4.1160    0.7660 C   0  0  0  0  0  0  0  0  0  0  0  0
   -0.1030    4.4400    1.0600 C   0  0  0  0  0  0  0  0  0  0  0  0
    0.9120    3.4700    0.9830 C   0  0  0  0  0  0  0  0  0  0  0  0
    0.5370    2.1310    0.5910 C   0  0  0  0  0  0  0  0  0  0  0  0
    1.5160    1.1950    0.5700 N   0  0  0  0  0  0  0  0  0  0  0  0
    1.2970   -0.1090    0.2750 C   0  0  0  0  0  0  0  0  0  0  0  0
   -0.0210   -0.4960   -0.0650 C   0  0  0  0  0  0  0  0  0  0  0  0
   -1.0910    0.4360   -0.1280 C   0  0  0  0  0  0  0  0  0  0  0  0
    2.3620   -1.0470    0.3490 C   0  0  0  0  0  0  0  0  0  0  0  0
    3.5730   -0.7460    0.9240 N   0  0  0  0  0  0  0  0  0  0  0  0
    2.1490   -2.2080   -0.0810 O   0  0  0  0  0  0  0  0  0  0  0  0
   -2.4700   -0.0350   -0.5570 C   0  0  2  0  0  0  0  0  0  0  0  0
   -2.8710    0.6890   -1.8830 C   0  0  0  0  0  0  0  0  0  0  0  0
   -3.5400   -0.0270    0.5860 C   0  0  0  0  0  0  0  0  0  0  0  0
   -4.9250   -0.7350    0.3670 C   0  0  1  0  0  0  0  0  0  0  0  0
   -4.0860    0.1460   -2.7180 C   0  0  2  0  0  0  0  0  0  0  0  0
   -5.4520    0.8920   -2.5200 C   0  0  0  0  0  0  0  0  0  0  0  0
   -5.8570    1.3190   -1.0860 C   0  0  0  0  0  0  0  0  0  0  0  0
   -6.1120    0.2090   -0.0320 C   0  0  0  0  0  0  0  0  0  0  0  0
   -4.1940   -1.4130   -2.8360 C   0  0  0  0  0  0  0  0  0  0  0  0
   -5.1710   -2.1620   -1.8920 C   0  0  0  0  0  0  0  0  0  0  0  0
   -4.8920   -2.1180   -0.3680 C   0  0  0  0  0  0  0  0  0  0  0  0
    4.6210   -1.6210    1.0550 C   0  0  0  0  0  0  0  0  0  0  0  0
    4.4870   -2.9020    1.6460 C   0  0  0  0  0  0  0  0  0  0  0  0
    5.9020   -1.2100    0.6210 C   0  0  0  0  0  0  0  0  0  0  0  0
    7.0350   -2.0100    0.8700 C   0  0  0  0  0  0  0  0  0  0  0  0
    6.9020   -3.2320    1.5600 C   0  0  0  0  0  0  0  0  0  0  0  0
    5.6190   -3.6910    1.9140 C   0  0  0  0  0  0  0  0  0  0  0  0
    8.0080   -3.9690    1.8830 O   0  0  0  0  0  0  0  0  0  0  0  0
    8.2470   -5.0330    0.9390 C   0  0  0  0  0  0  0  0  0  0  0  0
   -2.8270    2.5890    0.1710 H   0  0  0  0  0  0  0  0  0  0  0  0
   -2.2070    4.8830    0.8350 H   0  0  0  0  0  0  0  0  0  0  0  0
    0.1480    5.4590    1.3520 H   0  0  0  0  0  0  0  0  0  0  0  0
    1.9410    3.7430    1.2170 H   0  0  0  0  0  0  0  0  0  0  0  0
   -0.2200   -1.5450   -0.2850 H   0  0  0  0  0  0  0  0  0  0  0  0
    3.7020    0.1910    1.2770 H   0  0  0  0  0  0  0  0  0  0  0  0
   -2.3900   -1.1000   -0.7760 H   0  0  0  0  0  0  0  0  0  0  0  0
   -3.1750    1.6870   -1.5680 H   0  0  0  0  0  0  0  0  0  0  0  0
   -2.0070    0.5630   -2.5350 H   0  0  0  0  0  0  0  0  0  0  0  0
   -3.0730   -0.5830    1.3990 H   0  0  0  0  0  0  0  0  0  0  0  0
   -3.7880    1.0270    0.7180 H   0  0  0  0  0  0  0  0  0  0  0  0
   -5.1830   -1.0340    1.3830 H   0  0  0  0  0  0  0  0  0  0  0  0
   -3.8020    0.4450   -3.7270 H   0  0  0  0  0  0  0  0  0  0  0  0
   -5.3440    1.8300   -3.0660 H   0  0  0  0  0  0  0  0  0  0  0  0
   -6.2140    0.1720   -2.8180 H   0  0  0  0  0  0  0  0  0  0  0  0
   -4.9990    1.8730   -0.7070 H   0  0  0  0  0  0  0  0  0  0  0  0
   -6.8190    1.8180   -1.2050 H   0  0  0  0  0  0  0  0  0  0  0  0
   -6.3620    0.7510    0.8810 H   0  0  0  0  0  0  0  0  0  0  0  0
   -6.8500   -0.4450   -0.4960 H   0  0  0  0  0  0  0  0  0  0  0  0
   -4.5860   -1.5950   -3.8370 H   0  0  0  0  0  0  0  0  0  0  0  0
   -3.2070   -1.7860   -2.5610 H   0  0  0  0  0  0  0  0  0  0  0  0
   -6.1270   -1.6530   -2.0160 H   0  0  0  0  0  0  0  0  0  0  0  0
   -5.0740   -3.2130   -2.1640 H   0  0  0  0  0  0  0  0  0  0  0  0
   -5.7060   -2.6920    0.0750 H   0  0  0  0  0  0  0  0  0  0  0  0
   -3.8640   -2.4650   -0.2680 H   0  0  0  0  0  0  0  0  0  0  0  0
    3.4990   -3.2850    1.8980 H   0  0  0  0  0  0  0  0  0  0  0  0
    6.0160   -0.2670    0.0870 H   0  0  0  0  0  0  0  0  0  0  0  0
    8.0170   -1.6820    0.5290 H   0  0  0  0  0  0  0  0  0  0  0  0
    5.5010   -4.6610    2.3980 H   0  0  0  0  0  0  0  0  0  0  0  0
    7.6930   -4.8360    0.0210 H   0  0  0  0  0  0  0  0  0  0  0  0
    9.3120   -5.0880    0.7160 H   0  0  0  0  0  0  0  0  0  0  0  0
    7.9160   -5.9790    1.3670 H   0  0  0  0  0  0  0  0  0  0  0  0
  1  2  2  0
  1  6  1  0
  1 10  1  0
  2  3  1  0
  3  4  2  0
  4  5  1  0
  5  6  2  0
  6  7  1  0
  7  8  2  0
  8  9  1  0
  9 10  2  0
  8 11  1  0
 11 12  1  0
 11 13  2  0
 10 14  1  0
 14 15  1  0
 14 16  1  0
 16 17  1  0
 15 18  1  0
 18 19  1  0
 19 20  1  0
 20 21  1  0
 17 21  1  0
 18 22  1  0
 22 23  1  0
 23 24  1  0
 24 17  1  0
 12 25  1  0
 26 25  2  0
 25 27  1  0
 26 30  1  0
 27 28  2  0
 28 29  1  0
 29 30  2  0
 29 31  1  0
 31 32  1  0
  2 33  1  0
  3 34  1  0
  4 35  1  0
  5 36  1  0
  9 37  1  0
 12 38  1  0
 14 39  1  6
 15 40  1  0
 15 41  1  0
 16 42  1  0
 16 43  1  0
 17 44  1  1
 18 45  1  6
 19 46  1  0
 19 47  1  0
 20 48  1  0
 20 49  1  0
 21 50  1  0
 21 51  1  0
 22 52  1  0
 22 53  1  0
 23 54  1  0
 23 55  1  0
 24 56  1  0
 24 57  1  0
 26 58  1  0
 27 59  1  0
 28 60  1  0
 30 61  1  0
 32 62  1  0
 32 63  1  0
 32 64  1  0
M  END
>  <_TriposChargeType>  (21) 
USER_CHARGES

>  <Activity>  (21) 
4.55

$$$$
3_14H
     RDKit          3D

 45 47  0  0  0  0  0  0  0  0999 V2000
   -1.3357    4.1637    0.7203 C   0  0  0  0  0  0  0  0  0  0  0  0
   -0.0194    4.3757    1.1011 C   0  0  0  0  0  0  0  0  0  0  0  0
    0.8801    3.3087    1.0941 C   0  0  0  0  0  0  0  0  0  0  0  0
    0.5003    2.0282    0.7159 C   0  0  0  0  0  0  0  0  0  0  0  0
   -0.8391    1.7962    0.3292 C   0  0  0  0  0  0  0  0  0  0  0  0
   -1.7441    2.8861    0.3373 C   0  0  0  0  0  0  0  0  0  0  0  0
    1.4343    1.0647    0.7370 N   0  0  0  0  0  0  0  0  0  0  0  0
    1.0947   -0.1885    0.3599 C   0  0  0  0  0  0  0  0  0  0  0  0
   -0.1956   -0.5171   -0.0336 C   0  0  0  0  0  0  0  0  0  0  0  0
   -1.1866    0.4733   -0.0442 C   0  0  0  0  0  0  0  0  0  0  0  0
   -2.5849    0.0885   -0.4778 C   0  0  0  0  0  0  0  0  0  0  0  0
   -2.9067    0.4759   -1.9051 C   0  0  0  0  0  0  0  0  0  0  0  0
   -2.0978    0.5823   -2.8158 O   0  0  0  0  0  0  0  0  0  0  0  0
   -4.2565    0.6392   -2.0364 O   0  0  0  0  0  0  0  0  0  0  0  0
    2.1843   -1.2433    0.3750 C   0  0  0  0  0  0  0  0  0  0  0  0
    2.7482   -1.4355    1.7922 C   0  0  0  0  0  0  0  0  0  0  0  0
    3.8671   -2.4751    1.8122 C   0  0  0  0  0  0  0  0  0  0  0  0
    4.9723   -2.1315    0.8178 C   0  0  0  0  0  0  0  0  0  0  0  0
    4.4212   -1.9341   -0.5913 C   0  0  0  0  0  0  0  0  0  0  0  0
    3.3037   -0.8931   -0.6187 C   0  0  0  0  0  0  0  0  0  0  0  0
   -2.0441    4.9880    0.7182 H   0  0  0  0  0  0  0  0  0  0  0  0
    0.3147    5.3652    1.4008 H   0  0  0  0  0  0  0  0  0  0  0  0
   -4.7170    0.9955   -3.3486 C   0  0  0  0  0  0  0  0  0  0  0  0
    1.9126    3.4802    1.3903 H   0  0  0  0  0  0  0  0  0  0  0  0
   -2.7815    2.7570    0.0415 H   0  0  0  0  0  0  0  0  0  0  0  0
   -4.9497   -0.2531   -4.1783 C   0  0  0  0  0  0  0  0  0  0  0  0
   -0.4283   -1.5340   -0.3362 H   0  0  0  0  0  0  0  0  0  0  0  0
   -3.3102    0.5438    0.2066 H   0  0  0  0  0  0  0  0  0  0  0  0
   -2.7259   -0.9961   -0.3936 H   0  0  0  0  0  0  0  0  0  0  0  0
    1.7484   -2.2016    0.0597 H   0  0  0  0  0  0  0  0  0  0  0  0
    1.9493   -1.7481    2.4761 H   0  0  0  0  0  0  0  0  0  0  0  0
    3.1382   -0.4860    2.1818 H   0  0  0  0  0  0  0  0  0  0  0  0
    4.2880   -2.5436    2.8216 H   0  0  0  0  0  0  0  0  0  0  0  0
    3.4527   -3.4618    1.5714 H   0  0  0  0  0  0  0  0  0  0  0  0
    5.4819   -1.2155    1.1414 H   0  0  0  0  0  0  0  0  0  0  0  0
    5.7233   -2.9295    0.8113 H   0  0  0  0  0  0  0  0  0  0  0  0
    5.2296   -1.6240   -1.2630 H   0  0  0  0  0  0  0  0  0  0  0  0
    4.0390   -2.8895   -0.9713 H   0  0  0  0  0  0  0  0  0  0  0  0
    3.7290    0.0918   -0.3852 H   0  0  0  0  0  0  0  0  0  0  0  0
    2.8967   -0.8234   -1.6352 H   0  0  0  0  0  0  0  0  0  0  0  0
   -4.0210    1.6829   -3.8429 H   0  0  0  0  0  0  0  0  0  0  0  0
   -5.6622    1.5331   -3.2201 H   0  0  0  0  0  0  0  0  0  0  0  0
   -5.3567    0.0041   -5.1603 H   0  0  0  0  0  0  0  0  0  0  0  0
   -5.6486   -0.9267   -3.6715 H   0  0  0  0  0  0  0  0  0  0  0  0
   -4.0181   -0.8097   -4.3210 H   0  0  0  0  0  0  0  0  0  0  0  0
 43 26  1  0
 45 26  1  0
 26 44  1  0
 26 23  1  0
 41 23  1  0
 23 42  1  0
 23 14  1  0
 13 12  2  0
 14 12  1  0
 12 11  1  0
 40 20  1  0
 37 19  1  0
 38 19  1  0
 20 19  1  0
 20 39  1  0
 20 15  1  0
 19 18  1  0
 11 29  1  0
 11 10  1  0
 11 28  1  0
 27  9  1  0
 10  9  1  0
 10  5  2  0
  9  8  2  0
 25  6  1  0
 30 15  1  0
  5  6  1  0
  5  4  1  0
  6  1  2  0
  8 15  1  0
  8  7  1  0
 15 16  1  0
  4  7  2  0
  4  3  1  0
 21  1  1  0
  1  2  1  0
 36 18  1  0
 18 35  1  0
 18 17  1  0
  3  2  2  0
  3 24  1  0
  2 22  1  0
 34 17  1  0
 16 17  1  0
 16 32  1  0
 16 31  1  0
 17 33  1  0
M  END
>  <_TriposChargeType>  (22) 
GASTEIGER

>  <Activity>  (22) 
4.63

$$$$
3_13B
     RDKit          3D

 29 30  0  0  0  0  0  0  0  0999 V2000
   -1.3382    4.1590    0.7301 C   0  0  0  0  0  0  0  0  0  0  0  0
   -0.0204    4.3748    1.1038 C   0  0  0  0  0  0  0  0  0  0  0  0
    0.8832    3.3111    1.0896 C   0  0  0  0  0  0  0  0  0  0  0  0
    0.5062    2.0301    0.7101 C   0  0  0  0  0  0  0  0  0  0  0  0
   -0.8352    1.7956    0.3223 C   0  0  0  0  0  0  0  0  0  0  0  0
   -1.7440    2.8819    0.3425 C   0  0  0  0  0  0  0  0  0  0  0  0
    1.4419    1.0675    0.7298 N   0  0  0  0  0  0  0  0  0  0  0  0
    1.0765   -0.1796    0.3757 C   0  0  0  0  0  0  0  0  0  0  0  0
   -0.1999   -0.5229   -0.0225 C   0  0  0  0  0  0  0  0  0  0  0  0
   -1.1814    0.4735   -0.0645 C   0  0  0  0  0  0  0  0  0  0  0  0
   -2.5791    0.0906   -0.5013 C   0  0  0  0  0  0  0  0  0  0  0  0
   -3.5476   -0.0859    0.6480 C   0  0  0  0  0  0  0  0  0  0  0  0
   -3.2553   -0.4343    1.7833 O   0  0  0  0  0  0  0  0  0  0  0  0
   -4.8193    0.1571    0.2131 O   0  0  0  0  0  0  0  0  0  0  0  0
   -2.0510    4.9795    0.7411 H   0  0  0  0  0  0  0  0  0  0  0  0
    0.3104    5.3636    1.4094 H   0  0  0  0  0  0  0  0  0  0  0  0
    1.9151    3.4850    1.3867 H   0  0  0  0  0  0  0  0  0  0  0  0
   -2.7846    2.7492    0.0596 H   0  0  0  0  0  0  0  0  0  0  0  0
    1.8669   -0.9232    0.4235 H   0  0  0  0  0  0  0  0  0  0  0  0
   -0.4202   -1.5516   -0.2882 H   0  0  0  0  0  0  0  0  0  0  0  0
   -2.5594   -0.8530   -1.0602 H   0  0  0  0  0  0  0  0  0  0  0  0
   -2.9572    0.8490   -1.1968 H   0  0  0  0  0  0  0  0  0  0  0  0
   -5.8243   -0.0009    1.2225 C   0  0  0  0  0  0  0  0  0  0  0  0
   -5.6260    0.6858    2.0531 H   0  0  0  0  0  0  0  0  0  0  0  0
   -5.8218   -1.0341    1.5873 H   0  0  0  0  0  0  0  0  0  0  0  0
   -7.1707    0.3204    0.6036 C   0  0  0  0  0  0  0  0  0  0  0  0
   -7.9734    0.2134    1.3385 H   0  0  0  0  0  0  0  0  0  0  0  0
   -7.3746   -0.3442   -0.2424 H   0  0  0  0  0  0  0  0  0  0  0  0
   -7.1815    1.3439    0.2143 H   0  0  0  0  0  0  0  0  0  0  0  0
 22 11  1  0
 21 11  1  0
 11 10  1  0
 11 12  1  0
 20  9  1  0
 28 26  1  0
 10  9  1  0
 10  5  2  0
  9  8  2  0
 18  6  1  0
 14 12  1  0
 14 23  1  0
 29 26  1  0
  5  6  1  0
  5  4  1  0
  6  1  2  0
  8 19  1  0
  8  7  1  0
 26 23  1  0
 26 27  1  0
 12 13  2  0
  4  7  2  0
  4  3  1  0
  1 15  1  0
  1  2  1  0
  3  2  2  0
  3 17  1  0
  2 16  1  0
 23 25  1  0
 23 24  1  0
M  END
>  <_TriposChargeType>  (23) 
GASTEIGER

>  <Activity>  (23) 
2.85

$$$$
3_15B
     RDKit          3D

 55 58  0  0  0  0  0  0  0  0999 V2000
   -1.3469    4.1519    0.7075 C   0  0  0  0  0  0  0  0  0  0  0  0
   -0.0337    4.3829    1.0942 C   0  0  0  0  0  0  0  0  0  0  0  0
    0.9055    3.3401    1.1194 C   0  0  0  0  0  0  0  0  0  0  0  0
    0.5136    2.0407    0.7266 C   0  0  0  0  0  0  0  0  0  0  0  0
   -0.8274    1.7982    0.3360 C   0  0  0  0  0  0  0  0  0  0  0  0
   -1.7414    2.8731    0.3359 C   0  0  0  0  0  0  0  0  0  0  0  0
    1.4268    1.0499    0.7256 N   0  0  0  0  0  0  0  0  0  0  0  0
    1.0835   -0.2011    0.3496 C   0  0  0  0  0  0  0  0  0  0  0  0
   -0.2058   -0.5218   -0.0372 C   0  0  0  0  0  0  0  0  0  0  0  0
   -1.1856    0.4769   -0.0407 C   0  0  0  0  0  0  0  0  0  0  0  0
   -2.5868    0.0976   -0.4730 C   0  0  0  0  0  0  0  0  0  0  0  0
   -2.9035    0.4798   -1.8976 C   0  0  0  0  0  0  0  0  0  0  0  0
   -2.1263    0.6365   -2.8235 O   0  0  0  0  0  0  0  0  0  0  0  0
   -4.2324    0.5989   -2.1061 O   0  0  0  0  0  0  0  0  0  0  0  0
    2.1720   -1.2556    0.3630 C   0  0  0  0  0  0  0  0  0  0  0  0
    2.7446   -1.4393    1.7783 C   0  0  0  0  0  0  0  0  0  0  0  0
    3.8645   -2.4776    1.7975 C   0  0  0  0  0  0  0  0  0  0  0  0
    4.9640   -2.1373    0.7956 C   0  0  0  0  0  0  0  0  0  0  0  0
    4.4051   -1.9475   -0.6115 C   0  0  0  0  0  0  0  0  0  0  0  0
    3.2859   -0.9084   -0.6380 C   0  0  0  0  0  0  0  0  0  0  0  0
    2.3622    3.5716    1.5524 C   0  0  0  0  0  0  0  0  0  0  0  0
    2.6587    2.9534    2.9357 C   0  0  0  0  0  0  0  0  0  0  0  0
   -2.0621    4.9704    0.6923 H   0  0  0  0  0  0  0  0  0  0  0  0
    2.2580    3.8571    4.0971 C   0  0  0  0  0  0  0  0  0  0  0  0
    2.9595    5.2043    4.0024 C   0  0  0  0  0  0  0  0  0  0  0  0
    0.2361    5.3966    1.3637 H   0  0  0  0  0  0  0  0  0  0  0  0
    2.6368    5.9018    2.6890 C   0  0  0  0  0  0  0  0  0  0  0  0
    2.9072    5.0174    1.4682 C   0  0  0  0  0  0  0  0  0  0  0  0
   -2.7769    2.7360    0.0378 H   0  0  0  0  0  0  0  0  0  0  0  0
   -0.4467   -1.5365   -0.3395 H   0  0  0  0  0  0  0  0  0  0  0  0
   -3.3138    0.5576    0.2058 H   0  0  0  0  0  0  0  0  0  0  0  0
   -2.7317   -0.9862   -0.3850 H   0  0  0  0  0  0  0  0  0  0  0  0
   -4.2983    0.8225   -3.0591 H   0  0  0  0  0  0  0  0  0  0  0  0
    1.7345   -2.2156    0.0550 H   0  0  0  0  0  0  0  0  0  0  0  0
    1.9499   -1.7483    2.4687 H   0  0  0  0  0  0  0  0  0  0  0  0
    3.1366   -0.4875    2.1602 H   0  0  0  0  0  0  0  0  0  0  0  0
    4.2909   -2.5406    2.8050 H   0  0  0  0  0  0  0  0  0  0  0  0
    3.4500   -3.4659    1.5636 H   0  0  0  0  0  0  0  0  0  0  0  0
    5.4738   -1.2189    1.1121 H   0  0  0  0  0  0  0  0  0  0  0  0
    5.7162   -2.9341    0.7891 H   0  0  0  0  0  0  0  0  0  0  0  0
    5.2095   -1.6394   -1.2889 H   0  0  0  0  0  0  0  0  0  0  0  0
    4.0224   -2.9053   -0.9849 H   0  0  0  0  0  0  0  0  0  0  0  0
    3.7110    0.0783   -0.4111 H   0  0  0  0  0  0  0  0  0  0  0  0
    2.8737   -0.8439   -1.6526 H   0  0  0  0  0  0  0  0  0  0  0  0
    2.9641    3.0184    0.8156 H   0  0  0  0  0  0  0  0  0  0  0  0
    3.7385    2.7639    3.0040 H   0  0  0  0  0  0  0  0  0  0  0  0
    2.1722    1.9800    3.0610 H   0  0  0  0  0  0  0  0  0  0  0  0
    1.1709    3.9987    4.1075 H   0  0  0  0  0  0  0  0  0  0  0  0
    2.5261    3.3737    5.0436 H   0  0  0  0  0  0  0  0  0  0  0  0
    2.6559    5.8401    4.8418 H   0  0  0  0  0  0  0  0  0  0  0  0
    4.0440    5.0625    4.0863 H   0  0  0  0  0  0  0  0  0  0  0  0
    1.5929    6.2265    2.7107 H   0  0  0  0  0  0  0  0  0  0  0  0
    3.2347    6.8175    2.6080 H   0  0  0  0  0  0  0  0  0  0  0  0
    2.5533    5.5175    0.5587 H   0  0  0  0  0  0  0  0  0  0  0  0
    3.9992    4.9479    1.3632 H   0  0  0  0  0  0  0  0  0  0  0  0
 33 14  1  0
 13 12  2  0
 14 12  1  0
 12 11  1  0
 44 20  1  0
 41 19  1  0
 42 19  1  0
 20 19  1  0
 20 43  1  0
 20 15  1  0
 19 18  1  0
 11 32  1  0
 11 10  1  0
 11 31  1  0
 30  9  1  0
 10  9  1  0
 10  5  2  0
  9  8  2  0
 29  6  1  0
 34 15  1  0
  6  5  1  0
  6  1  2  0
  5  4  1  0
  8 15  1  0
  8  7  1  0
 15 16  1  0
 54 28  1  0
 23  1  1  0
  1  2  1  0
  7  4  2  0
  4  3  1  0
 40 18  1  0
 18 39  1  0
 18 17  1  0
 45 21  1  0
  2  3  2  0
  2 26  1  0
  3 21  1  0
 55 28  1  0
 28 21  1  0
 28 27  1  0
 21 22  1  0
 38 17  1  0
 16 17  1  0
 16 36  1  0
 16 35  1  0
 17 37  1  0
 53 27  1  0
 27 52  1  0
 27 25  1  0
 22 46  1  0
 22 47  1  0
 22 24  1  0
 25 51  1  0
 25 24  1  0
 25 50  1  0
 24 48  1  0
 24 49  1  0
M  END
>  <_TriposChargeType>  (24) 
GASTEIGER

>  <Activity>  (24) 
3.75

$$$$
4_7A
     RDKit          3D

 50 53  0  0  0  0  0  0  0  0999 V2000
   -0.6980    1.8660    0.5020 C   0  0  0  0  0  0  0  0  0  0  0  0
   -1.6000    2.9670    0.5680 C   0  0  0  0  0  0  0  0  0  0  0  0
   -1.1910    4.2370    1.0160 C   0  0  0  0  0  0  0  0  0  0  0  0
    0.1350    4.4490    1.4190 C   0  0  0  0  0  0  0  0  0  0  0  0
    1.0510    3.3860    1.3800 C   0  0  0  0  0  0  0  0  0  0  0  0
    0.6400    2.1130    0.9350 C   0  0  0  0  0  0  0  0  0  0  0  0
    1.5510    1.1120    0.9380 N   0  0  0  0  0  0  0  0  0  0  0  0
    1.2790   -0.1600    0.5640 C   0  0  0  0  0  0  0  0  0  0  0  0
   -0.0380   -0.4590    0.1430 C   0  0  0  0  0  0  0  0  0  0  0  0
   -1.0420    0.5440    0.0540 C   0  0  0  0  0  0  0  0  0  0  0  0
    2.3230   -1.1200    0.6020 C   0  0  0  0  0  0  0  0  0  0  0  0
    3.5660   -0.8130    1.0270 N   0  0  0  0  0  0  0  0  0  0  0  0
    2.1400   -2.3020    0.2300 O   0  0  0  0  0  0  0  0  0  0  0  0
   -2.4250    0.1880   -0.4720 C   0  0  2  0  0  0  0  0  0  0  0  0
   -3.4270    0.0320    0.7190 C   0  0  0  0  0  0  0  0  0  0  0  0
   -2.4800   -0.9790   -1.5190 C   0  0  0  0  0  0  0  0  0  0  0  0
   -3.7890   -1.1760   -2.3800 C   0  0  1  0  0  0  0  0  0  0  0  0
   -4.9750    0.0920    0.4380 C   0  0  2  0  0  0  0  0  0  0  0  0
   -5.7180   -1.2860    0.3570 C   0  0  0  0  0  0  0  0  0  0  0  0
   -5.0290   -2.4610   -0.3810 C   0  0  0  0  0  0  0  0  0  0  0  0
   -4.7900   -2.2870   -1.9010 C   0  0  0  0  0  0  0  0  0  0  0  0
   -5.4340    1.1630   -0.6120 C   0  0  0  0  0  0  0  0  0  0  0  0
   -5.6660    0.7280   -2.0850 C   0  0  0  0  0  0  0  0  0  0  0  0
   -4.4790    0.1350   -2.8960 C   0  0  0  0  0  0  0  0  0  0  0  0
   -2.6380    2.8320    0.2650 H   0  0  0  0  0  0  0  0  0  0  0  0
   -1.9050    5.0610    1.0500 H   0  0  0  0  0  0  0  0  0  0  0  0
    0.4530    5.4340    1.7610 H   0  0  0  0  0  0  0  0  0  0  0  0
    2.0820    3.5500    1.6950 H   0  0  0  0  0  0  0  0  0  0  0  0
   -0.2860   -1.4880   -0.1180 H   0  0  0  0  0  0  0  0  0  0  0  0
    3.9920    0.0620    0.7550 H   0  0  0  0  0  0  0  0  0  0  0  0
    4.0720   -1.4570    1.6180 H   0  0  0  0  0  0  0  0  0  0  0  0
   -2.7170    1.0510   -1.0710 H   0  0  0  0  0  0  0  0  0  0  0  0
   -3.2520   -0.9770    1.0920 H   0  0  0  0  0  0  0  0  0  0  0  0
   -3.2270    0.8920    1.3580 H   0  0  0  0  0  0  0  0  0  0  0  0
   -1.7040   -0.7330   -2.2440 H   0  0  0  0  0  0  0  0  0  0  0  0
   -2.3990   -1.8870   -0.9220 H   0  0  0  0  0  0  0  0  0  0  0  0
   -3.3690   -1.6140   -3.2860 H   0  0  0  0  0  0  0  0  0  0  0  0
   -5.3540    0.4980    1.3760 H   0  0  0  0  0  0  0  0  0  0  0  0
   -5.8010   -1.6240    1.3900 H   0  0  0  0  0  0  0  0  0  0  0  0
   -6.6180   -1.0890   -0.2250 H   0  0  0  0  0  0  0  0  0  0  0  0
   -4.0340   -2.5290    0.0580 H   0  0  0  0  0  0  0  0  0  0  0  0
   -5.7210   -3.2980   -0.2950 H   0  0  0  0  0  0  0  0  0  0  0  0
   -4.3410   -3.2290   -2.2160 H   0  0  0  0  0  0  0  0  0  0  0  0
   -5.7600   -1.9860   -2.2970 H   0  0  0  0  0  0  0  0  0  0  0  0
   -6.4160    1.4900   -0.2670 H   0  0  0  0  0  0  0  0  0  0  0  0
   -4.6110    1.8750   -0.6650 H   0  0  0  0  0  0  0  0  0  0  0  0
   -6.3900   -0.0850   -2.0210 H   0  0  0  0  0  0  0  0  0  0  0  0
   -5.9260    1.6480   -2.6070 H   0  0  0  0  0  0  0  0  0  0  0  0
   -4.9130   -0.1360   -3.8590 H   0  0  0  0  0  0  0  0  0  0  0  0
   -3.7040    0.9000   -2.8450 H   0  0  0  0  0  0  0  0  0  0  0  0
  1  2  2  0
  1  6  1  0
  1 10  1  0
  2  3  1  0
  3  4  2  0
  4  5  1  0
  5  6  2  0
  6  7  1  0
  7  8  2  0
  8  9  1  0
  9 10  2  0
  8 11  1  0
 11 12  1  0
 11 13  2  0
 10 14  1  0
 14 15  1  0
 14 16  1  0
 16 17  1  0
 15 18  1  0
 18 19  1  0
 19 20  1  0
 20 21  1  0
 17 21  1  0
 18 22  1  0
 22 23  1  0
 23 24  1  0
 24 17  1  0
  2 25  1  0
  3 26  1  0
  4 27  1  0
  5 28  1  0
  9 29  1  0
 12 30  1  0
 12 31  1  0
 14 32  1  6
 15 33  1  0
 15 34  1  0
 16 35  1  0
 16 36  1  0
 17 37  1  6
 18 38  1  1
 19 39  1  0
 19 40  1  0
 20 41  1  0
 20 42  1  0
 21 43  1  0
 21 44  1  0
 22 45  1  0
 22 46  1  0
 23 47  1  0
 23 48  1  0
 24 49  1  0
 24 50  1  0
M  END
>  <_TriposChargeType>  (25) 
USER_CHARGES

>  <Activity>  (25) 
6.38

$$$$
3_3B
     RDKit          3D

 49 52  0  0  0  0  0  0  0  0999 V2000
   -1.2884    4.2006    0.7281 C   0  0  0  0  0  0  0  0  0  0  0  0
    0.0109    4.3530    1.1723 C   0  0  0  0  0  0  0  0  0  0  0  0
    0.8693    3.2692    1.1161 C   0  0  0  0  0  0  0  0  0  0  0  0
    0.4525    2.0212    0.6929 C   0  0  0  0  0  0  0  0  0  0  0  0
   -0.9026    1.7855    0.3029 C   0  0  0  0  0  0  0  0  0  0  0  0
   -1.7597    2.9624    0.2367 C   0  0  0  0  0  0  0  0  0  0  0  0
    1.4263    1.1058    0.7005 N   0  0  0  0  0  0  0  0  0  0  0  0
    1.1316   -0.1523    0.3281 C   0  0  0  0  0  0  0  0  0  0  0  0
   -0.1491   -0.5461    0.0033 C   0  0  0  0  0  0  0  0  0  0  0  0
   -1.2022    0.3917    0.0359 C   0  0  0  0  0  0  0  0  0  0  0  0
    2.2305   -1.1645    0.3037 C   0  0  0  0  0  0  0  0  0  0  0  0
    2.0624   -2.3375   -0.0002 O   0  0  0  0  0  0  0  0  0  0  0  0
    3.4144   -0.6013    0.6588 O   0  0  0  0  0  0  0  0  0  0  0  0
   -1.9334    5.0763    0.7517 H   0  0  0  0  0  0  0  0  0  0  0  0
    0.3649    5.3154    1.5305 H   0  0  0  0  0  0  0  0  0  0  0  0
    1.9040    3.4020    1.4278 H   0  0  0  0  0  0  0  0  0  0  0  0
   -3.1376    2.9777   -0.4048 C   0  0  0  0  0  0  0  0  0  0  0  0
   -0.3314   -1.5878   -0.2472 H   0  0  0  0  0  0  0  0  0  0  0  0
   -2.6022   -0.1833   -0.1470 C   0  0  0  0  0  0  0  0  0  0  0  0
    4.5162   -1.5071    0.6593 C   0  0  0  0  0  0  0  0  0  0  0  0
    5.4105   -0.9536    0.9589 H   0  0  0  0  0  0  0  0  0  0  0  0
    4.6800   -1.9125   -0.3440 H   0  0  0  0  0  0  0  0  0  0  0  0
    4.3501   -2.3132    1.3808 H   0  0  0  0  0  0  0  0  0  0  0  0
   -4.2950    3.1083    0.5891 C   0  0  0  0  0  0  0  0  0  0  0  0
   -5.5020    3.4830   -0.2700 C   0  0  0  0  0  0  0  0  0  0  0  0
   -4.9436    4.0388   -1.5807 C   0  0  0  0  0  0  0  0  0  0  0  0
   -3.4341    4.1299   -1.3820 C   0  0  0  0  0  0  0  0  0  0  0  0
   -2.8955   -0.5852   -1.6057 C   0  0  0  0  0  0  0  0  0  0  0  0
   -3.7859   -1.8144   -1.5035 C   0  0  0  0  0  0  0  0  0  0  0  0
   -3.2087   -2.5597   -0.3144 C   0  0  0  0  0  0  0  0  0  0  0  0
   -2.9075   -1.4548    0.6911 C   0  0  0  0  0  0  0  0  0  0  0  0
   -3.2626    2.0876   -1.0184 H   0  0  0  0  0  0  0  0  0  0  0  0
   -3.3428    0.5317    0.2048 H   0  0  0  0  0  0  0  0  0  0  0  0
   -4.1064    3.9092    1.3149 H   0  0  0  0  0  0  0  0  0  0  0  0
   -4.4731    2.1947    1.1639 H   0  0  0  0  0  0  0  0  0  0  0  0
   -6.1319    4.2176    0.2424 H   0  0  0  0  0  0  0  0  0  0  0  0
   -6.1225    2.6024   -0.4711 H   0  0  0  0  0  0  0  0  0  0  0  0
   -5.3797    5.0099   -1.8344 H   0  0  0  0  0  0  0  0  0  0  0  0
   -5.1739    3.3493   -2.4015 H   0  0  0  0  0  0  0  0  0  0  0  0
   -3.1912    5.1148   -0.9707 H   0  0  0  0  0  0  0  0  0  0  0  0
   -2.8883    4.0231   -2.3253 H   0  0  0  0  0  0  0  0  0  0  0  0
   -1.9774   -0.8458   -2.1466 H   0  0  0  0  0  0  0  0  0  0  0  0
   -3.3833    0.2139   -2.1715 H   0  0  0  0  0  0  0  0  0  0  0  0
   -3.7717   -2.4141   -2.4179 H   0  0  0  0  0  0  0  0  0  0  0  0
   -4.8218   -1.5172   -1.3021 H   0  0  0  0  0  0  0  0  0  0  0  0
   -2.2844   -3.0741   -0.6015 H   0  0  0  0  0  0  0  0  0  0  0  0
   -3.9018   -3.3053    0.0858 H   0  0  0  0  0  0  0  0  0  0  0  0
   -2.1200   -1.7429    1.3941 H   0  0  0  0  0  0  0  0  0  0  0  0
   -3.8080   -1.2730    1.2931 H   0  0  0  0  0  0  0  0  0  0  0  0
 44 29  1  0
 39 26  1  0
 41 27  1  0
 43 28  1  0
 42 28  1  0
 38 26  1  0
 28 29  1  0
 28 19  1  0
 26 27  1  0
 26 25  1  0
 29 45  1  0
 29 30  1  0
 27 40  1  0
 27 17  1  0
 32 17  1  0
 46 30  1  0
 37 25  1  0
 17  6  1  0
 17 24  1  0
 22 20  1  0
 30 47  1  0
 30 31  1  0
 25 36  1  0
 25 24  1  0
 18  9  1  0
 19 10  1  0
 19 33  1  0
 19 31  1  0
 12 11  2  0
  9 10  1  0
  9  8  2  0
 10  5  2  0
  6  5  1  0
  6  1  2  0
  5  4  1  0
 11  8  1  0
 11 13  1  0
  8  7  1  0
 24 35  1  0
 24 34  1  0
 13 20  1  0
 20 21  1  0
 20 23  1  0
 31 49  1  0
 31 48  1  0
  4  7  2  0
  4  3  1  0
  1 14  1  0
  1  2  1  0
  3  2  2  0
  3 16  1  0
  2 15  1  0
M  END
>  <_TriposChargeType>  (26) 
GASTEIGER

>  <Activity>  (26) 
7.51

$$$$
2_4E
     RDKit          3D

 56 59  0  0  0  0  0  0  0  0999 V2000
   -1.3344    4.1611    0.7312 C   0  0  0  0  0  0  0  0  0  0  0  0
   -0.0167    4.3839    1.1059 C   0  0  0  0  0  0  0  0  0  0  0  0
    0.8909    3.3261    1.0946 C   0  0  0  0  0  0  0  0  0  0  0  0
    0.4962    2.0336    0.7084 C   0  0  0  0  0  0  0  0  0  0  0  0
   -0.8421    1.7898    0.3183 C   0  0  0  0  0  0  0  0  0  0  0  0
   -1.7410    2.8848    0.3445 C   0  0  0  0  0  0  0  0  0  0  0  0
    1.4345    1.0651    0.7307 N   0  0  0  0  0  0  0  0  0  0  0  0
    1.0930   -0.1903    0.3746 C   0  0  0  0  0  0  0  0  0  0  0  0
   -0.1963   -0.5218   -0.0221 C   0  0  0  0  0  0  0  0  0  0  0  0
   -1.1953    0.4586   -0.0692 C   0  0  0  0  0  0  0  0  0  0  0  0
    2.1780   -1.2494    0.4256 C   0  0  0  0  0  0  0  0  0  0  0  0
    2.6904   -1.4411    1.8624 C   0  0  0  0  0  0  0  0  0  0  0  0
    3.8066   -2.4819    1.9236 C   0  0  0  0  0  0  0  0  0  0  0  0
    2.2515    3.4641    1.4635 N   0  0  0  0  0  0  0  0  0  0  0  0
    2.9392    4.5934    1.8846 C   0  0  0  0  0  0  0  0  0  0  0  0
    2.4445    5.7143    2.0102 O   0  0  0  0  0  0  0  0  0  0  0  0
    4.9474   -2.1404    0.9695 C   0  0  0  0  0  0  0  0  0  0  0  0
    4.4475   -1.9438   -0.4587 C   0  0  0  0  0  0  0  0  0  0  0  0
    3.3337   -0.9010   -0.5268 C   0  0  0  0  0  0  0  0  0  0  0  0
    4.4231    4.3071    2.1904 C   0  0  0  0  0  0  0  0  0  0  0  0
   -2.0472    4.9825    0.7396 H   0  0  0  0  0  0  0  0  0  0  0  0
    0.2713    5.3872    1.4017 H   0  0  0  0  0  0  0  0  0  0  0  0
   -2.7828    2.7627    0.0597 H   0  0  0  0  0  0  0  0  0  0  0  0
   -0.4012   -1.5506   -0.2840 H   0  0  0  0  0  0  0  0  0  0  0  0
   -2.6208    0.1141   -0.5221 C   0  0  0  0  0  0  0  0  0  0  0  0
    1.7520   -2.2064    0.0936 H   0  0  0  0  0  0  0  0  0  0  0  0
    1.8670   -1.7522    2.5173 H   0  0  0  0  0  0  0  0  0  0  0  0
    3.0669   -0.4915    2.2648 H   0  0  0  0  0  0  0  0  0  0  0  0
    4.1907   -2.5500    2.9477 H   0  0  0  0  0  0  0  0  0  0  0  0
    3.4000   -3.4683    1.6687 H   0  0  0  0  0  0  0  0  0  0  0  0
    2.7684    2.5825    1.3957 H   0  0  0  0  0  0  0  0  0  0  0  0
    5.4458   -1.2245    1.3105 H   0  0  0  0  0  0  0  0  0  0  0  0
    5.6974   -2.9391    0.9909 H   0  0  0  0  0  0  0  0  0  0  0  0
    5.2801   -1.6358   -1.1013 H   0  0  0  0  0  0  0  0  0  0  0  0
    4.0776   -2.8990   -0.8512 H   0  0  0  0  0  0  0  0  0  0  0  0
    3.7526    0.0830   -0.2778 H   0  0  0  0  0  0  0  0  0  0  0  0
    2.9639   -0.8303   -1.5572 H   0  0  0  0  0  0  0  0  0  0  0  0
    5.2686    5.0416    1.4164 F   0  0  0  0  0  0  0  0  0  0  0  0
    4.7516    2.9982    1.9740 F   0  0  0  0  0  0  0  0  0  0  0  0
    4.7506    4.5693    3.4856 F   0  0  0  0  0  0  0  0  0  0  0  0
   -3.0828   -1.3566   -0.3719 C   0  0  0  0  0  0  0  0  0  0  0  0
   -2.7536   -2.2875   -1.5427 C   0  0  0  0  0  0  0  0  0  0  0  0
   -3.0833   -1.6725   -2.8947 C   0  0  0  0  0  0  0  0  0  0  0  0
   -2.4429   -0.3005   -3.0457 C   0  0  0  0  0  0  0  0  0  0  0  0
   -2.9125    0.6420   -1.9423 C   0  0  0  0  0  0  0  0  0  0  0  0
   -3.2753    0.6582    0.1731 H   0  0  0  0  0  0  0  0  0  0  0  0
   -4.1782   -1.3436   -0.2795 H   0  0  0  0  0  0  0  0  0  0  0  0
   -2.7121   -1.7897    0.5649 H   0  0  0  0  0  0  0  0  0  0  0  0
   -1.6970   -2.5686   -1.5321 H   0  0  0  0  0  0  0  0  0  0  0  0
   -3.3127   -3.2235   -1.4242 H   0  0  0  0  0  0  0  0  0  0  0  0
   -2.7349   -2.3345   -3.6954 H   0  0  0  0  0  0  0  0  0  0  0  0
   -4.1714   -1.5863   -3.0036 H   0  0  0  0  0  0  0  0  0  0  0  0
   -1.3505   -0.3904   -3.0264 H   0  0  0  0  0  0  0  0  0  0  0  0
   -2.7114    0.1200   -4.0216 H   0  0  0  0  0  0  0  0  0  0  0  0
   -2.4675    1.6291   -2.1086 H   0  0  0  0  0  0  0  0  0  0  0  0
   -3.9980    0.7758   -2.0439 H   0  0  0  0  0  0  0  0  0  0  0  0
 54 44  1  0
 51 43  1  0
 44 53  1  0
 44 43  1  0
 44 45  1  0
 52 43  1  0
 43 42  1  0
 55 45  1  0
 56 45  1  0
 45 25  1  0
 37 19  1  0
 42 49  1  0
 42 50  1  0
 42 41  1  0
 34 18  1  0
 35 18  1  0
 19 18  1  0
 19 36  1  0
 19 11  1  0
 25 41  1  0
 25 10  1  0
 25 46  1  0
 18 17  1  0
 41 47  1  0
 41 48  1  0
 24  9  1  0
 10  9  1  0
 10  5  2  0
  9  8  2  0
 23  6  1  0
 26 11  1  0
  5  6  1  0
  5  4  1  0
  6  1  2  0
  8 11  1  0
  8  7  1  0
 11 12  1  0
  4  7  2  0
  4  3  1  0
  1 21  1  0
  1  2  1  0
 17 33  1  0
 17 32  1  0
 17 13  1  0
  3  2  2  0
  3 14  1  0
  2 22  1  0
 31 14  1  0
 38 20  1  0
 14 15  1  0
 30 13  1  0
 12 13  1  0
 12 28  1  0
 12 27  1  0
 15 16  2  0
 15 20  1  0
 13 29  1  0
 39 20  1  0
 20 40  1  0
M  END
>  <_TriposChargeType>  (27) 
GASTEIGER

>  <Activity>  (27) 
6.19

$$$$
4_5A
     RDKit          3D

 26 27  0  0  0  0  0  0  0  0999 V2000
   -1.3335    4.1635    0.7216 C   0  0  0  0  0  0  0  0  0  0  0  0
   -0.0169    4.3757    1.0999 C   0  0  0  0  0  0  0  0  0  0  0  0
    0.8816    3.3084    1.0936 C   0  0  0  0  0  0  0  0  0  0  0  0
    0.5007    2.0279    0.7175 C   0  0  0  0  0  0  0  0  0  0  0  0
   -0.8414    1.7930    0.3295 C   0  0  0  0  0  0  0  0  0  0  0  0
   -1.7441    2.8858    0.3402 C   0  0  0  0  0  0  0  0  0  0  0  0
    1.4375    1.0675    0.7349 N   0  0  0  0  0  0  0  0  0  0  0  0
    1.0825   -0.1770    0.3642 C   0  0  0  0  0  0  0  0  0  0  0  0
   -0.1928   -0.5215   -0.0330 C   0  0  0  0  0  0  0  0  0  0  0  0
   -1.1848    0.4676   -0.0515 C   0  0  0  0  0  0  0  0  0  0  0  0
   -2.5677    0.0600   -0.5128 C   0  0  0  0  0  0  0  0  0  0  0  0
   -2.6941   -0.0914   -2.0179 C   0  0  0  0  0  0  0  0  0  0  0  0
   -3.1394   -1.1142   -2.5391 O   0  0  0  0  0  0  0  0  0  0  0  0
   -2.3310    1.0300   -2.7552 N   0  0  0  0  0  0  0  0  0  0  0  0
   -2.3519    0.9559   -4.1676 N   0  0  0  0  0  0  0  0  0  0  0  0
   -2.0421    4.9882    0.7249 H   0  0  0  0  0  0  0  0  0  0  0  0
    0.3174    5.3651    1.4008 H   0  0  0  0  0  0  0  0  0  0  0  0
    1.9141    3.4804    1.3905 H   0  0  0  0  0  0  0  0  0  0  0  0
   -2.7849    2.7644    0.0542 H   0  0  0  0  0  0  0  0  0  0  0  0
    1.8795   -0.9146    0.3941 H   0  0  0  0  0  0  0  0  0  0  0  0
   -0.4067   -1.5461   -0.3241 H   0  0  0  0  0  0  0  0  0  0  0  0
   -2.8131   -0.9082   -0.0558 H   0  0  0  0  0  0  0  0  0  0  0  0
   -1.7466    1.7472   -2.3262 H   0  0  0  0  0  0  0  0  0  0  0  0
   -2.1637   -0.0237   -4.4209 H   0  0  0  0  0  0  0  0  0  0  0  0
   -3.3233    1.0894   -4.4658 H   0  0  0  0  0  0  0  0  0  0  0  0
   -3.3474    0.7430   -0.1647 H   0  0  0  0  0  0  0  0  0  0  0  0
 25 15  1  0
 24 15  1  0
 15 14  1  0
 14 23  1  0
 14 12  1  0
 13 12  2  0
 12 11  1  0
 11 26  1  0
 11 22  1  0
 11 10  1  0
 21  9  1  0
 10  9  1  0
 10  5  2  0
  9  8  2  0
 19  6  1  0
  5  6  1  0
  5  4  1  0
  6  1  2  0
  8 20  1  0
  8  7  1  0
  4  7  2  0
  4  3  1  0
  1 16  1  0
  1  2  1  0
  3  2  2  0
  3 18  1  0
  2 17  1  0
M  END
>  <_TriposChargeType>  (28) 
GASTEIGER

>  <Activity>  (28) 
3.50

$$$$
1_2G
     RDKit          3D

 44 48  0  0  0  0  0  0  0  0999 V2000
   -1.3403    4.1616    0.7247 C   0  0  0  0  0  0  0  0  0  0  0  0
   -0.0228    4.3760    1.1021 C   0  0  0  0  0  0  0  0  0  0  0  0
    0.8798    3.3108    1.0915 C   0  0  0  0  0  0  0  0  0  0  0  0
    0.5015    2.0297    0.7125 C   0  0  0  0  0  0  0  0  0  0  0  0
   -0.8349    1.8004    0.3270 C   0  0  0  0  0  0  0  0  0  0  0  0
   -1.7451    2.8841    0.3397 C   0  0  0  0  0  0  0  0  0  0  0  0
    1.4314    1.0613    0.7305 N   0  0  0  0  0  0  0  0  0  0  0  0
    1.0986   -0.2024    0.3673 C   0  0  0  0  0  0  0  0  0  0  0  0
   -0.1980   -0.5145   -0.0266 C   0  0  0  0  0  0  0  0  0  0  0  0
   -1.1816    0.4840   -0.0518 C   0  0  0  0  0  0  0  0  0  0  0  0
    2.2306   -1.2306    0.4229 C   0  0  1  0  0  0  0  0  0  0  0  0
    3.3828   -0.7789   -0.5196 C   0  0  0  0  0  0  0  0  0  0  0  0
    4.5776   -1.7447   -0.4337 C   0  0  1  0  0  0  0  0  0  0  0  0
    5.0941   -1.7837    1.0139 C   0  0  0  0  0  0  0  0  0  0  0  0
    3.9825   -2.2707    1.9578 C   0  0  1  0  0  0  0  0  0  0  0  0
    2.7873   -1.3053    1.8736 C   0  0  0  0  0  0  0  0  0  0  0  0
    4.1254   -3.1521   -0.8494 C   0  0  0  0  0  0  0  0  0  0  0  0
   -2.5769    0.1199   -0.4817 C   0  0  0  0  0  0  0  0  0  0  0  0
    3.0104   -3.6407    0.0869 C   0  0  1  0  0  0  0  0  0  0  0  0
    3.5333   -3.6756    1.5305 C   0  0  0  0  0  0  0  0  0  0  0  0
    1.8185   -2.6716    0.0034 C   0  0  0  0  0  0  0  0  0  0  0  0
   -2.0522    4.9828    0.7290 H   0  0  0  0  0  0  0  0  0  0  0  0
    0.3089    5.3654    1.4049 H   0  0  0  0  0  0  0  0  0  0  0  0
    1.9119    3.4833    1.3881 H   0  0  0  0  0  0  0  0  0  0  0  0
   -2.7824    2.7409    0.0483 H   0  0  0  0  0  0  0  0  0  0  0  0
   -0.4662   -1.5241   -0.3174 H   0  0  0  0  0  0  0  0  0  0  0  0
    3.7256    0.2316   -0.2605 H   0  0  0  0  0  0  0  0  0  0  0  0
    3.0231   -0.7250   -1.5560 H   0  0  0  0  0  0  0  0  0  0  0  0
    5.3764   -1.4021   -1.1011 H   0  0  0  0  0  0  0  0  0  0  0  0
    5.4341   -0.7861    1.3179 H   0  0  0  0  0  0  0  0  0  0  0  0
    5.9624   -2.4504    1.0833 H   0  0  0  0  0  0  0  0  0  0  0  0
    4.3592   -2.3011    2.9863 H   0  0  0  0  0  0  0  0  0  0  0  0
    3.1087   -0.3140    2.2200 H   0  0  0  0  0  0  0  0  0  0  0  0
    1.9979   -1.6311    2.5643 H   0  0  0  0  0  0  0  0  0  0  0  0
    4.9752   -3.8449   -0.8139 H   0  0  0  0  0  0  0  0  0  0  0  0
    3.7674   -3.1405   -1.8861 H   0  0  0  0  0  0  0  0  0  0  0  0
   -2.8638    0.6938   -1.3688 H   0  0  0  0  0  0  0  0  0  0  0  0
   -3.2874    0.3139    0.3282 H   0  0  0  0  0  0  0  0  0  0  0  0
   -2.6562   -0.9417   -0.7393 H   0  0  0  0  0  0  0  0  0  0  0  0
    2.6906   -4.6448   -0.2136 H   0  0  0  0  0  0  0  0  0  0  0  0
    4.3725   -4.3777    1.6084 H   0  0  0  0  0  0  0  0  0  0  0  0
    2.7494   -4.0407    2.2054 H   0  0  0  0  0  0  0  0  0  0  0  0
    1.4295   -2.6749   -1.0235 H   0  0  0  0  0  0  0  0  0  0  0  0
    1.0126   -3.0430    0.6504 H   0  0  0  0  0  0  0  0  0  0  0  0
 36 17  1  0
 28 12  1  0
 37 18  1  0
 13 29  1  6
 43 21  1  0
 17 35  1  0
 17 13  1  0
 17 19  1  0
 39 18  1  0
 12 13  1  0
 12 27  1  0
 12 11  1  0
 18 10  1  0
 18 38  1  0
 13 14  1  0
 26  9  1  0
 19 40  1  6
 10  9  1  0
 10  5  2  0
  9  8  2  0
 21 19  1  0
 21 11  1  0
 21 44  1  0
 25  6  1  0
 19 20  1  0
  5  6  1  0
  5  4  1  0
  6  1  2  0
 11  8  1  1
  8  7  1  0
 11 16  1  0
  4  7  2  0
  4  3  1  0
  1 22  1  0
  1  2  1  0
 14 31  1  0
 14 30  1  0
 14 15  1  0
  3  2  2  0
  3 24  1  0
  2 23  1  0
 20 41  1  0
 20 15  1  0
 20 42  1  0
 16 15  1  0
 16 33  1  0
 16 34  1  0
 15 32  1  1
M  END
>  <_TriposChargeType>  (29) 
GASTEIGER

>  <Activity>  (29) 
5.15

$$$$
1_2E
     RDKit          3D

 36 38  0  0  0  0  0  0  0  0999 V2000
   -1.3399    4.1591    0.7240 C   0  0  0  0  0  0  0  0  0  0  0  0
   -0.0227    4.3751    1.1017 C   0  0  0  0  0  0  0  0  0  0  0  0
    0.8815    3.3112    1.0921 C   0  0  0  0  0  0  0  0  0  0  0  0
    0.5052    2.0295    0.7136 C   0  0  0  0  0  0  0  0  0  0  0  0
   -0.8336    1.7977    0.3270 C   0  0  0  0  0  0  0  0  0  0  0  0
   -1.7438    2.8810    0.3394 C   0  0  0  0  0  0  0  0  0  0  0  0
    1.4378    1.0638    0.7329 N   0  0  0  0  0  0  0  0  0  0  0  0
    1.0898   -0.1913    0.3672 C   0  0  0  0  0  0  0  0  0  0  0  0
   -0.2019   -0.5157   -0.0281 C   0  0  0  0  0  0  0  0  0  0  0  0
   -1.1838    0.4805   -0.0529 C   0  0  0  0  0  0  0  0  0  0  0  0
    2.1701   -1.2551    0.4026 C   0  0  0  0  0  0  0  0  0  0  0  0
    2.7031   -1.4530    1.8309 C   0  0  0  0  0  0  0  0  0  0  0  0
    3.3131   -0.9144   -0.5674 C   0  0  0  0  0  0  0  0  0  0  0  0
    3.8114   -2.5032    1.8732 C   0  0  0  0  0  0  0  0  0  0  0  0
    4.9400   -2.1701    0.9017 C   0  0  0  0  0  0  0  0  0  0  0  0
    4.4198   -1.9661   -0.5183 C   0  0  0  0  0  0  0  0  0  0  0  0
   -2.0524    4.9797    0.7277 H   0  0  0  0  0  0  0  0  0  0  0  0
   -2.5787    0.1170   -0.4827 C   0  0  0  0  0  0  0  0  0  0  0  0
    0.3077    5.3651    1.4040 H   0  0  0  0  0  0  0  0  0  0  0  0
    1.9132    3.4855    1.3890 H   0  0  0  0  0  0  0  0  0  0  0  0
   -2.7811    2.7376    0.0478 H   0  0  0  0  0  0  0  0  0  0  0  0
   -0.4438   -1.5348   -0.3146 H   0  0  0  0  0  0  0  0  0  0  0  0
    1.7327   -2.2093    0.0769 H   0  0  0  0  0  0  0  0  0  0  0  0
    1.8876   -1.7581    2.4983 H   0  0  0  0  0  0  0  0  0  0  0  0
    3.0939   -0.5071    2.2287 H   0  0  0  0  0  0  0  0  0  0  0  0
    3.7432    0.0660   -0.3240 H   0  0  0  0  0  0  0  0  0  0  0  0
    2.9278   -0.8397   -1.5919 H   0  0  0  0  0  0  0  0  0  0  0  0
    3.3925   -3.4858    1.6236 H   0  0  0  0  0  0  0  0  0  0  0  0
    4.2110   -2.5759    2.8910 H   0  0  0  0  0  0  0  0  0  0  0  0
    5.6829   -2.9755    0.9098 H   0  0  0  0  0  0  0  0  0  0  0  0
    5.4520   -1.2595    1.2364 H   0  0  0  0  0  0  0  0  0  0  0  0
    4.0364   -2.9175   -0.9071 H   0  0  0  0  0  0  0  0  0  0  0  0
    5.2448   -1.6632   -1.1729 H   0  0  0  0  0  0  0  0  0  0  0  0
   -3.2897    0.3130    0.3264 H   0  0  0  0  0  0  0  0  0  0  0  0
   -2.6579   -0.9452   -0.7379 H   0  0  0  0  0  0  0  0  0  0  0  0
   -2.8647    0.6892   -1.3711 H   0  0  0  0  0  0  0  0  0  0  0  0
 27 13  1  0
 36 18  1  0
 33 16  1  0
 32 16  1  0
 35 18  1  0
 13 16  1  0
 13 26  1  0
 13 11  1  0
 16 15  1  0
 18 10  1  0
 18 34  1  0
 22  9  1  0
 10  9  1  0
 10  5  2  0
  9  8  2  0
 21  6  1  0
 23 11  1  0
  5  6  1  0
  5  4  1  0
  6  1  2  0
  8 11  1  0
  8  7  1  0
 11 12  1  0
  4  7  2  0
  4  3  1  0
  1 17  1  0
  1  2  1  0
 15 30  1  0
 15 31  1  0
 15 14  1  0
  3  2  2  0
  3 20  1  0
  2 19  1  0
 28 14  1  0
 12 14  1  0
 12 25  1  0
 12 24  1  0
 14 29  1  0
M  END
>  <_TriposChargeType>  (30) 
GASTEIGER

>  <Activity>  (30) 
3.84

$$$$
4_7K
     RDKit          3D

 62 66  0  0  0  0  0  0  0  0999 V2000
   -1.0360    1.8000    0.3680 C   0  0  0  0  0  0  0  0  0  0  0  0
   -1.9870    2.8520    0.4810 C   0  0  0  0  0  0  0  0  0  0  0  0
   -1.6090    4.1470    0.8850 C   0  0  0  0  0  0  0  0  0  0  0  0
   -0.2700    4.4270    1.1950 C   0  0  0  0  0  0  0  0  0  0  0  0
    0.6910    3.4080    1.1190 C   0  0  0  0  0  0  0  0  0  0  0  0
    0.3080    2.1100    0.7300 C   0  0  0  0  0  0  0  0  0  0  0  0
    1.2530    1.1440    0.7350 N   0  0  0  0  0  0  0  0  0  0  0  0
    1.0080   -0.1540    0.4360 C   0  0  0  0  0  0  0  0  0  0  0  0
   -0.3070   -0.5100    0.0740 C   0  0  0  0  0  0  0  0  0  0  0  0
   -1.3380    0.4610   -0.0450 C   0  0  0  0  0  0  0  0  0  0  0  0
    2.0760   -1.0780    0.5040 C   0  0  0  0  0  0  0  0  0  0  0  0
    3.3440   -0.6100    0.6930 N   0  0  0  0  0  0  0  0  0  0  0  0
    1.8500   -2.3110    0.4200 O   0  0  0  0  0  0  0  0  0  0  0  0
   -2.6970    0.0220   -0.5580 C   0  0  2  0  0  0  0  0  0  0  0  0
   -2.9890    0.8070   -1.8750 C   0  0  0  0  0  0  0  0  0  0  0  0
   -3.8100    0.0260    0.5520 C   0  0  0  0  0  0  0  0  0  0  0  0
   -5.2410   -0.5510    0.2520 C   0  0  1  0  0  0  0  0  0  0  0  0
   -4.2250    0.4060   -2.7530 C   0  0  2  0  0  0  0  0  0  0  0  0
   -5.5050    1.2820   -2.5480 C   0  0  0  0  0  0  0  0  0  0  0  0
   -5.9300    1.6510   -1.1040 C   0  0  0  0  0  0  0  0  0  0  0  0
   -6.3350    0.5000   -0.1480 C   0  0  0  0  0  0  0  0  0  0  0  0
   -4.4700   -1.1310   -2.9430 C   0  0  0  0  0  0  0  0  0  0  0  0
   -5.5380   -1.8370   -2.0700 C   0  0  0  0  0  0  0  0  0  0  0  0
   -5.2860   -1.8980   -0.5440 C   0  0  0  0  0  0  0  0  0  0  0  0
    4.4880   -1.3400    0.7560 C   0  0  0  0  0  0  0  0  0  0  0  0
    4.8030   -2.3780   -0.1460 C   0  0  0  0  0  0  0  0  0  0  0  0
    5.3980   -1.0210    1.7790 C   0  0  0  0  0  0  0  0  0  0  0  0
    6.5690   -1.7820    1.9540 C   0  0  0  0  0  0  0  0  0  0  0  0
    6.8820   -2.8670    1.0880 C   0  0  0  0  0  0  0  0  0  0  0  0
    5.9790   -3.1290    0.0240 C   0  0  0  0  0  0  0  0  0  0  0  0
    7.9770   -3.6310    1.2660 N   0  0  0  0  0  4  0  0  0  0  0  0
    8.5390   -3.6890    2.2890 O   0  0  0  0  0  0  0  0  0  0  0  0
    8.4180   -4.3070    0.4190 O   0  0  0  0  0  1  0  0  0  0  0  0
   -3.0350    2.6600    0.2520 H   0  0  0  0  0  0  0  0  0  0  0  0
   -2.3580    4.9360    0.9570 H   0  0  0  0  0  0  0  0  0  0  0  0
    0.0240    5.4330    1.4950 H   0  0  0  0  0  0  0  0  0  0  0  0
    1.7320    3.6240    1.3600 H   0  0  0  0  0  0  0  0  0  0  0  0
   -0.5320   -1.5600   -0.1170 H   0  0  0  0  0  0  0  0  0  0  0  0
    3.4490    0.3890    0.7990 H   0  0  0  0  0  0  0  0  0  0  0  0
   -2.6590   -1.0350   -0.8220 H   0  0  0  0  0  0  0  0  0  0  0  0
   -3.2030    1.8230   -1.5440 H   0  0  0  0  0  0  0  0  0  0  0  0
   -2.1240    0.6100   -2.5070 H   0  0  0  0  0  0  0  0  0  0  0  0
   -3.4150   -0.6240    1.3330 H   0  0  0  0  0  0  0  0  0  0  0  0
   -3.9830    1.0820    0.7570 H   0  0  0  0  0  0  0  0  0  0  0  0
   -5.5630   -0.8640    1.2460 H   0  0  0  0  0  0  0  0  0  0  0  0
   -3.9000    0.6960   -3.7530 H   0  0  0  0  0  0  0  0  0  0  0  0
   -5.2710    2.2380   -3.0170 H   0  0  0  0  0  0  0  0  0  0  0  0
   -6.3270    0.6750   -2.9290 H   0  0  0  0  0  0  0  0  0  0  0  0
   -5.0400    2.0900   -0.6530 H   0  0  0  0  0  0  0  0  0  0  0  0
   -6.8340    2.2490   -1.2210 H   0  0  0  0  0  0  0  0  0  0  0  0
   -6.6050    0.9980    0.7830 H   0  0  0  0  0  0  0  0  0  0  0  0
   -7.0850   -0.0660   -0.7000 H   0  0  0  0  0  0  0  0  0  0  0  0
   -4.8420   -1.2330   -3.9630 H   0  0  0  0  0  0  0  0  0  0  0  0
   -3.5300   -1.6030   -2.6570 H   0  0  0  0  0  0  0  0  0  0  0  0
   -6.4390   -1.2360   -2.1850 H   0  0  0  0  0  0  0  0  0  0  0  0
   -5.5300   -2.8760   -2.4000 H   0  0  0  0  0  0  0  0  0  0  0  0
   -6.1450   -2.4360   -0.1430 H   0  0  0  0  0  0  0  0  0  0  0  0
   -4.2850   -2.3190   -0.4460 H   0  0  0  0  0  0  0  0  0  0  0  0
    4.1360   -2.6000   -0.9790 H   0  0  0  0  0  0  0  0  0  0  0  0
    5.1950   -0.1790    2.4410 H   0  0  0  0  0  0  0  0  0  0  0  0
    7.2430   -1.5280    2.7720 H   0  0  0  0  0  0  0  0  0  0  0  0
    6.1940   -3.9310   -0.6820 H   0  0  0  0  0  0  0  0  0  0  0  0
  1  2  2  0
  1  6  1  0
  1 10  1  0
  2  3  1  0
  3  4  2  0
  4  5  1  0
  5  6  2  0
  6  7  1  0
  7  8  2  0
  8  9  1  0
  9 10  2  0
  8 11  1  0
 11 12  1  0
 11 13  2  0
 10 14  1  0
 14 15  1  0
 14 16  1  0
 16 17  1  0
 15 18  1  0
 18 19  1  0
 19 20  1  0
 20 21  1  0
 17 21  1  0
 18 22  1  0
 22 23  1  0
 23 24  1  0
 24 17  1  0
 12 25  1  0
 26 25  2  0
 25 27  1  0
 26 30  1  0
 27 28  2  0
 28 29  1  0
 29 30  2  0
 29 31  1  0
 31 32  2  0
 31 33  1  0
  2 34  1  0
  3 35  1  0
  4 36  1  0
  5 37  1  0
  9 38  1  0
 12 39  1  0
 14 40  1  6
 15 41  1  0
 15 42  1  0
 16 43  1  0
 16 44  1  0
 17 45  1  1
 18 46  1  6
 19 47  1  0
 19 48  1  0
 20 49  1  0
 20 50  1  0
 21 51  1  0
 21 52  1  0
 22 53  1  0
 22 54  1  0
 23 55  1  0
 23 56  1  0
 24 57  1  0
 24 58  1  0
 26 59  1  0
 27 60  1  0
 28 61  1  0
 30 62  1  0
M  CHG  2  31   1  33  -1
M  END
>  <_TriposChargeType>  (31) 
USER_CHARGES

>  <Activity>  (31) 
4.71

$$$$
1_2D
     RDKit          3D

 33 35  0  0  0  0  0  0  0  0999 V2000
   -1.3401    4.1590    0.7249 C   0  0  0  0  0  0  0  0  0  0  0  0
   -0.0227    4.3751    1.1017 C   0  0  0  0  0  0  0  0  0  0  0  0
    0.8816    3.3112    1.0912 C   0  0  0  0  0  0  0  0  0  0  0  0
    0.5051    2.0295    0.7130 C   0  0  0  0  0  0  0  0  0  0  0  0
   -0.8337    1.7979    0.3271 C   0  0  0  0  0  0  0  0  0  0  0  0
   -1.7441    2.8810    0.3401 C   0  0  0  0  0  0  0  0  0  0  0  0
    1.4378    1.0636    0.7311 N   0  0  0  0  0  0  0  0  0  0  0  0
    1.0894   -0.1926    0.3711 C   0  0  0  0  0  0  0  0  0  0  0  0
   -0.2011   -0.5148   -0.0293 C   0  0  0  0  0  0  0  0  0  0  0  0
   -1.1835    0.4811   -0.0540 C   0  0  0  0  0  0  0  0  0  0  0  0
    2.1652   -1.2491    0.3855 C   0  0  0  0  0  0  0  0  0  0  0  0
    2.9941   -1.2866    1.6704 C   0  0  0  0  0  0  0  0  0  0  0  0
    3.2252   -1.0489   -0.7018 C   0  0  0  0  0  0  0  0  0  0  0  0
    4.1957   -2.1292    1.2701 C   0  0  0  0  0  0  0  0  0  0  0  0
    4.4851   -1.7418   -0.1782 C   0  0  0  0  0  0  0  0  0  0  0  0
   -2.0527    4.9795    0.7292 H   0  0  0  0  0  0  0  0  0  0  0  0
    0.3078    5.3651    1.4040 H   0  0  0  0  0  0  0  0  0  0  0  0
   -2.5774    0.1181   -0.4872 C   0  0  0  0  0  0  0  0  0  0  0  0
    1.9135    3.4856    1.3873 H   0  0  0  0  0  0  0  0  0  0  0  0
   -2.7815    2.7376    0.0488 H   0  0  0  0  0  0  0  0  0  0  0  0
   -0.4416   -1.5328   -0.3213 H   0  0  0  0  0  0  0  0  0  0  0  0
    1.7083   -2.2396    0.2494 H   0  0  0  0  0  0  0  0  0  0  0  0
    2.4432   -1.7238    2.5092 H   0  0  0  0  0  0  0  0  0  0  0  0
    3.3274   -0.2861    1.9723 H   0  0  0  0  0  0  0  0  0  0  0  0
    3.4393    0.0140   -0.8694 H   0  0  0  0  0  0  0  0  0  0  0  0
    2.9020   -1.4653   -1.6620 H   0  0  0  0  0  0  0  0  0  0  0  0
    3.9390   -3.1941    1.3231 H   0  0  0  0  0  0  0  0  0  0  0  0
    5.0568   -1.9614    1.9238 H   0  0  0  0  0  0  0  0  0  0  0  0
    4.7331   -2.6264   -0.7742 H   0  0  0  0  0  0  0  0  0  0  0  0
    5.3403   -1.0592   -0.2348 H   0  0  0  0  0  0  0  0  0  0  0  0
   -2.8605    0.6896   -1.3769 H   0  0  0  0  0  0  0  0  0  0  0  0
   -3.2905    0.3152    0.3197 H   0  0  0  0  0  0  0  0  0  0  0  0
   -2.6566   -0.9444   -0.7414 H   0  0  0  0  0  0  0  0  0  0  0  0
 26 13  1  0
 31 18  1  0
 25 13  1  0
 29 15  1  0
 33 18  1  0
 13 15  1  0
 13 11  1  0
 18 10  1  0
 18 32  1  0
 21  9  1  0
 30 15  1  0
 15 14  1  0
 10  9  1  0
 10  5  2  0
  9  8  2  0
 20  6  1  0
 22 11  1  0
  5  6  1  0
  5  4  1  0
  6  1  2  0
  8 11  1  0
  8  7  1  0
 11 12  1  0
  4  7  2  0
  4  3  1  0
  1 16  1  0
  1  2  1  0
  3  2  2  0
  3 19  1  0
  2 17  1  0
 14 27  1  0
 14 12  1  0
 14 28  1  0
 12 24  1  0
 12 23  1  0
M  END
>  <_TriposChargeType>  (32) 
GASTEIGER

>  <Activity>  (32) 
4.98

$$$$
4_2H
     RDKit          3D

 55 58  0  0  0  0  0  0  0  0999 V2000
   -1.3425    4.1583    0.7070 C   0  0  0  0  0  0  0  0  0  0  0  0
   -0.0343    4.3849    1.0992 C   0  0  0  0  0  0  0  0  0  0  0  0
    0.9019    3.3354    1.1144 C   0  0  0  0  0  0  0  0  0  0  0  0
    0.5173    2.0377    0.7290 C   0  0  0  0  0  0  0  0  0  0  0  0
   -0.8296    1.7894    0.3375 C   0  0  0  0  0  0  0  0  0  0  0  0
   -1.7331    2.8778    0.3308 C   0  0  0  0  0  0  0  0  0  0  0  0
    1.4397    1.0604    0.7345 N   0  0  0  0  0  0  0  0  0  0  0  0
    1.0741   -0.1849    0.3457 C   0  0  0  0  0  0  0  0  0  0  0  0
   -0.2057   -0.5265   -0.0450 C   0  0  0  0  0  0  0  0  0  0  0  0
   -1.1992    0.4586   -0.0362 C   0  0  0  0  0  0  0  0  0  0  0  0
    2.1556   -1.2201    0.3530 C   0  0  0  0  0  0  0  0  0  0  0  0
    1.9485   -2.3850    0.0246 O   0  0  0  0  0  0  0  0  0  0  0  0
    3.3931   -0.7414    0.7630 N   0  0  0  0  0  0  0  0  0  0  0  0
   -2.6246    0.0985   -0.4605 C   0  0  0  0  0  0  0  0  0  0  0  0
   -3.0829   -1.3257   -0.0774 C   0  0  0  0  0  0  0  0  0  0  0  0
   -4.5327   -1.5703   -0.4960 C   0  0  0  0  0  0  0  0  0  0  0  0
   -4.7258   -1.3312   -1.9907 C   0  0  0  0  0  0  0  0  0  0  0  0
   -4.2510    0.0578   -2.4067 C   0  0  0  0  0  0  0  0  0  0  0  0
   -2.8105    0.3246   -1.9713 C   0  0  0  0  0  0  0  0  0  0  0  0
    4.5026   -1.6041    0.8508 N   0  0  0  0  0  0  0  0  0  0  0  0
    2.3401    3.6279    1.5470 C   0  0  0  0  0  0  0  0  0  0  0  0
    2.4133    4.1399    2.9979 C   0  0  0  0  0  0  0  0  0  0  0  0
    3.8560    4.4175    3.4182 C   0  0  0  0  0  0  0  0  0  0  0  0
    4.5479    5.3779    2.4550 C   0  0  0  0  0  0  0  0  0  0  0  0
    4.4777    4.8804    1.0141 C   0  0  0  0  0  0  0  0  0  0  0  0
    3.0385    4.6036    0.5820 C   0  0  0  0  0  0  0  0  0  0  0  0
   -2.0589    4.9758    0.6912 H   0  0  0  0  0  0  0  0  0  0  0  0
    0.2569    5.3918    1.3901 H   0  0  0  0  0  0  0  0  0  0  0  0
   -2.7665    2.7531    0.0198 H   0  0  0  0  0  0  0  0  0  0  0  0
   -0.4041   -1.5472   -0.3533 H   0  0  0  0  0  0  0  0  0  0  0  0
    3.4625    0.2382    1.0464 H   0  0  0  0  0  0  0  0  0  0  0  0
   -3.3138    0.7594    0.0789 H   0  0  0  0  0  0  0  0  0  0  0  0
   -2.9852   -1.4739    1.0049 H   0  0  0  0  0  0  0  0  0  0  0  0
   -2.4599   -2.0859   -0.5626 H   0  0  0  0  0  0  0  0  0  0  0  0
   -4.8190   -2.5986   -0.2480 H   0  0  0  0  0  0  0  0  0  0  0  0
   -5.1968   -0.9073    0.0719 H   0  0  0  0  0  0  0  0  0  0  0  0
   -4.1697   -2.0896   -2.5555 H   0  0  0  0  0  0  0  0  0  0  0  0
   -5.7836   -1.4524   -2.2501 H   0  0  0  0  0  0  0  0  0  0  0  0
   -4.3318    0.1637   -3.4944 H   0  0  0  0  0  0  0  0  0  0  0  0
   -4.9095    0.8149   -1.9633 H   0  0  0  0  0  0  0  0  0  0  0  0
   -2.1343   -0.3320   -2.5346 H   0  0  0  0  0  0  0  0  0  0  0  0
   -2.5426    1.3526   -2.2438 H   0  0  0  0  0  0  0  0  0  0  0  0
    4.7175   -1.9146   -0.1023 H   0  0  0  0  0  0  0  0  0  0  0  0
    4.1761   -2.4634    1.3082 H   0  0  0  0  0  0  0  0  0  0  0  0
    2.9228    2.6986    1.5223 H   0  0  0  0  0  0  0  0  0  0  0  0
    1.9728    3.4011    3.6788 H   0  0  0  0  0  0  0  0  0  0  0  0
    1.8302    5.0614    3.1167 H   0  0  0  0  0  0  0  0  0  0  0  0
    3.8700    4.8372    4.4304 H   0  0  0  0  0  0  0  0  0  0  0  0
    4.4133    3.4735    3.4564 H   0  0  0  0  0  0  0  0  0  0  0  0
    4.0755    6.3656    2.5230 H   0  0  0  0  0  0  0  0  0  0  0  0
    5.5956    5.5041    2.7503 H   0  0  0  0  0  0  0  0  0  0  0  0
    4.9260    5.6240    0.3454 H   0  0  0  0  0  0  0  0  0  0  0  0
    5.0712    3.9632    0.9150 H   0  0  0  0  0  0  0  0  0  0  0  0
    2.4964    5.5562    0.5325 H   0  0  0  0  0  0  0  0  0  0  0  0
    3.0383    4.1906   -0.4344 H   0  0  0  0  0  0  0  0  0  0  0  0
 39 18  1  0
 37 17  1  0
 41 19  1  0
 18 17  1  0
 18 19  1  0
 18 40  1  0
 38 17  1  0
 42 19  1  0
 17 16  1  0
 19 14  1  0
 34 15  1  0
 16 35  1  0
 16 15  1  0
 16 36  1  0
 14 15  1  0
 14 10  1  0
 14 32  1  0
 55 26  1  0
 30  9  1  0
 43 20  1  0
 15 33  1  0
  9 10  1  0
  9  8  2  0
 10  5  2  0
 29  6  1  0
 12 11  2  0
  6  5  1  0
  6  1  2  0
  5  4  1  0
 52 25  1  0
  8 11  1  0
  8  7  1  0
 11 13  1  0
 54 26  1  0
 26 25  1  0
 26 21  1  0
 27  1  1  0
  1  2  1  0
  4  7  2  0
  4  3  1  0
 13 20  1  0
 13 31  1  0
 20 44  1  0
 53 25  1  0
 25 24  1  0
  2  3  2  0
  2 28  1  0
  3 21  1  0
 45 21  1  0
 21 22  1  0
 24 50  1  0
 24 51  1  0
 24 23  1  0
 22 47  1  0
 22 23  1  0
 22 46  1  0
 23 49  1  0
 23 48  1  0
M  END
>  <_TriposChargeType>  (33) 
GASTEIGER

>  <Activity>  (33) 
4.23

$$$$
1_3D
     RDKit          3D

 46 49  0  0  0  0  0  0  0  0999 V2000
   -1.3519    4.1483    0.7210 C   0  0  0  0  0  0  0  0  0  0  0  0
   -0.0369    4.3815    1.1014 C   0  0  0  0  0  0  0  0  0  0  0  0
    0.9063    3.3398    1.1017 C   0  0  0  0  0  0  0  0  0  0  0  0
    0.5181    2.0409    0.7174 C   0  0  0  0  0  0  0  0  0  0  0  0
   -0.8222    1.8006    0.3283 C   0  0  0  0  0  0  0  0  0  0  0  0
   -1.7410    2.8707    0.3369 C   0  0  0  0  0  0  0  0  0  0  0  0
    1.4291    1.0487    0.7315 N   0  0  0  0  0  0  0  0  0  0  0  0
    1.0798   -0.2031    0.3605 C   0  0  0  0  0  0  0  0  0  0  0  0
   -0.2107   -0.5204   -0.0293 C   0  0  0  0  0  0  0  0  0  0  0  0
   -1.1817    0.4841   -0.0523 C   0  0  0  0  0  0  0  0  0  0  0  0
    2.1493   -1.2721    0.4192 C   0  0  0  0  0  0  0  0  0  0  0  0
    2.5099   -1.6284    1.8739 C   0  0  0  0  0  0  0  0  0  0  0  0
    3.4705   -0.8358   -0.2410 C   0  0  0  0  0  0  0  0  0  0  0  0
    4.0321   -1.6046    1.9390 C   0  0  0  0  0  0  0  0  0  0  0  0
    4.4200   -0.5533    0.9150 C   0  0  0  0  0  0  0  0  0  0  0  0
   -2.0732    4.9614    0.7233 H   0  0  0  0  0  0  0  0  0  0  0  0
    0.2350    5.3907    1.3950 H   0  0  0  0  0  0  0  0  0  0  0  0
   -2.5800    0.1261   -0.4794 C   0  0  0  0  0  0  0  0  0  0  0  0
    2.3526    3.5798    1.5062 C   0  0  0  0  0  0  0  0  0  0  0  0
   -2.7769    2.7198    0.0445 H   0  0  0  0  0  0  0  0  0  0  0  0
   -0.4607   -1.5387   -0.3107 H   0  0  0  0  0  0  0  0  0  0  0  0
    1.7888   -2.1684   -0.1019 H   0  0  0  0  0  0  0  0  0  0  0  0
    2.1178   -2.6117    2.1554 H   0  0  0  0  0  0  0  0  0  0  0  0
    2.1006   -0.9034    2.5882 H   0  0  0  0  0  0  0  0  0  0  0  0
    3.3748    0.0204   -0.9164 H   0  0  0  0  0  0  0  0  0  0  0  0
    3.8693   -1.6718   -0.8301 H   0  0  0  0  0  0  0  0  0  0  0  0
    4.4359   -2.5822    1.6498 H   0  0  0  0  0  0  0  0  0  0  0  0
    4.4004   -1.3674    2.9412 H   0  0  0  0  0  0  0  0  0  0  0  0
    5.4695   -0.6300    0.6171 H   0  0  0  0  0  0  0  0  0  0  0  0
    4.2493    0.4522    1.3164 H   0  0  0  0  0  0  0  0  0  0  0  0
   -3.2878    0.3201    0.3329 H   0  0  0  0  0  0  0  0  0  0  0  0
   -2.6632   -0.9348   -0.7391 H   0  0  0  0  0  0  0  0  0  0  0  0
   -2.8672    0.7020   -1.3650 H   0  0  0  0  0  0  0  0  0  0  0  0
    3.3169    3.6044    0.3121 C   0  0  0  0  0  0  0  0  0  0  0  0
    4.5912    4.2720    0.8325 C   0  0  0  0  0  0  0  0  0  0  0  0
    4.2279    4.9011    2.1756 C   0  0  0  0  0  0  0  0  0  0  0  0
    2.7059    4.8937    2.2139 C   0  0  0  0  0  0  0  0  0  0  0  0
    2.6475    2.7696    2.1899 H   0  0  0  0  0  0  0  0  0  0  0  0
    2.9018    4.1991   -0.5119 H   0  0  0  0  0  0  0  0  0  0  0  0
    3.5245    2.6057   -0.0843 H   0  0  0  0  0  0  0  0  0  0  0  0
    4.9409    5.0293    0.1225 H   0  0  0  0  0  0  0  0  0  0  0  0
    5.3984    3.5423    0.9579 H   0  0  0  0  0  0  0  0  0  0  0  0
    4.6398    5.9087    2.2857 H   0  0  0  0  0  0  0  0  0  0  0  0
    4.6264    4.2869    2.9920 H   0  0  0  0  0  0  0  0  0  0  0  0
    2.3371    5.7693    1.6674 H   0  0  0  0  0  0  0  0  0  0  0  0
    2.3168    4.9380    3.2358 H   0  0  0  0  0  0  0  0  0  0  0  0
 33 18  1  0
 25 13  1  0
 26 13  1  0
 32 18  1  0
 39 34  1  0
 18 10  1  0
 18 31  1  0
 21  9  1  0
 13 11  1  0
 13 15  1  0
 22 11  1  0
 40 34  1  0
 10  9  1  0
 10  5  2  0
  9  8  2  0
 20  6  1  0
 41 35  1  0
 34 35  1  0
 34 19  1  0
  5  6  1  0
  5  4  1  0
  6  1  2  0
  8 11  1  0
  8  7  1  0
 11 12  1  0
 29 15  1  0
  4  7  2  0
  4  3  1  0
  1 16  1  0
  1  2  1  0
 35 42  1  0
 35 36  1  0
 15 30  1  0
 15 14  1  0
  2  3  2  0
  2 17  1  0
  3 19  1  0
 19 38  1  0
 19 37  1  0
 27 14  1  0
 45 37  1  0
 12 14  1  0
 12 23  1  0
 12 24  1  0
 14 28  1  0
 36 37  1  0
 36 43  1  0
 36 44  1  0
 37 46  1  0
M  END
>  <_TriposChargeType>  (34) 
GASTEIGER

>  <Activity>  (34) 
6.65

$$$$
3_4A
     RDKit          3D

 36 38  0  0  0  0  0  0  0  0999 V2000
   -1.3348    4.1588    0.7383 C   0  0  0  0  0  0  0  0  0  0  0  0
   -0.0169    4.3763    1.1045 C   0  0  0  0  0  0  0  0  0  0  0  0
    0.8855    3.3133    1.0855 C   0  0  0  0  0  0  0  0  0  0  0  0
    0.5065    2.0332    0.7056 C   0  0  0  0  0  0  0  0  0  0  0  0
   -0.8374    1.7898    0.3143 C   0  0  0  0  0  0  0  0  0  0  0  0
   -1.7408    2.8817    0.3495 C   0  0  0  0  0  0  0  0  0  0  0  0
    1.4494    1.0816    0.7365 N   0  0  0  0  0  0  0  0  0  0  0  0
    1.0712   -0.1750    0.3823 C   0  0  0  0  0  0  0  0  0  0  0  0
   -0.2037   -0.5304   -0.0186 C   0  0  0  0  0  0  0  0  0  0  0  0
   -1.1904    0.4616   -0.0811 C   0  0  0  0  0  0  0  0  0  0  0  0
    2.1521   -1.2016    0.4540 C   0  0  0  0  0  0  0  0  0  0  0  0
    2.0192   -2.3810    0.1822 O   0  0  0  0  0  0  0  0  0  0  0  0
    3.3120   -0.6335    0.8674 O   0  0  0  0  0  0  0  0  0  0  0  0
   -2.6088    0.0997   -0.5232 C   0  0  0  0  0  0  0  0  0  0  0  0
   -3.4697   -0.2867    0.6922 C   0  0  0  0  0  0  0  0  0  0  0  0
   -4.9161   -0.5716    0.2892 C   0  0  0  0  0  0  0  0  0  0  0  0
   -5.0058   -1.6233   -0.8125 C   0  0  0  0  0  0  0  0  0  0  0  0
   -4.1450   -1.2542   -2.0172 C   0  0  0  0  0  0  0  0  0  0  0  0
   -2.6953   -0.9974   -1.6061 C   0  0  0  0  0  0  0  0  0  0  0  0
   -2.0501    4.9775    0.7551 H   0  0  0  0  0  0  0  0  0  0  0  0
    0.3130    5.3662    1.4093 H   0  0  0  0  0  0  0  0  0  0  0  0
    1.9167    3.4949    1.3813 H   0  0  0  0  0  0  0  0  0  0  0  0
   -2.7864    2.7560    0.0817 H   0  0  0  0  0  0  0  0  0  0  0  0
   -0.4047   -1.5671   -0.2674 H   0  0  0  0  0  0  0  0  0  0  0  0
    3.1496    0.3283    1.0193 H   0  0  0  0  0  0  0  0  0  0  0  0
   -3.0506    0.9860   -0.9946 H   0  0  0  0  0  0  0  0  0  0  0  0
   -3.4615    0.5147    1.4409 H   0  0  0  0  0  0  0  0  0  0  0  0
   -3.0490   -1.1743    1.1828 H   0  0  0  0  0  0  0  0  0  0  0  0
   -5.4825   -0.9073    1.1652 H   0  0  0  0  0  0  0  0  0  0  0  0
   -5.3856    0.3578   -0.0565 H   0  0  0  0  0  0  0  0  0  0  0  0
   -4.6809   -2.5933   -0.4162 H   0  0  0  0  0  0  0  0  0  0  0  0
   -6.0491   -1.7403   -1.1265 H   0  0  0  0  0  0  0  0  0  0  0  0
   -4.1804   -2.0628   -2.7561 H   0  0  0  0  0  0  0  0  0  0  0  0
   -4.5542   -0.3595   -2.5020 H   0  0  0  0  0  0  0  0  0  0  0  0
   -2.2749   -1.9432   -1.2451 H   0  0  0  0  0  0  0  0  0  0  0  0
   -2.1123   -0.7032   -2.4873 H   0  0  0  0  0  0  0  0  0  0  0  0
 33 18  1  0
 34 18  1  0
 36 19  1  0
 18 19  1  0
 18 17  1  0
 19 35  1  0
 19 14  1  0
 32 17  1  0
 26 14  1  0
 17 31  1  0
 17 16  1  0
 14 10  1  0
 14 15  1  0
 24  9  1  0
 10  9  1  0
 10  5  2  0
 30 16  1  0
  9  8  2  0
 23  6  1  0
 12 11  2  0
 16 15  1  0
 16 29  1  0
  5  6  1  0
  5  4  1  0
  6  1  2  0
  8 11  1  0
  8  7  1  0
 11 13  1  0
 15 28  1  0
 15 27  1  0
  4  7  2  0
  4  3  1  0
  1 20  1  0
  1  2  1  0
 13 25  1  0
  3  2  2  0
  3 22  1  0
  2 21  1  0
M  END
>  <_TriposChargeType>  (35) 
GASTEIGER

>  <Activity>  (35) 
3.61

$$$$
3_14G
     RDKit          3D

 55 58  0  0  0  0  0  0  0  0999 V2000
   -1.3491    4.1578    0.7093 C   0  0  0  0  0  0  0  0  0  0  0  0
   -0.0381    4.3844    1.0967 C   0  0  0  0  0  0  0  0  0  0  0  0
    0.8995    3.3346    1.1122 C   0  0  0  0  0  0  0  0  0  0  0  0
    0.5163    2.0368    0.7263 C   0  0  0  0  0  0  0  0  0  0  0  0
   -0.8260    1.7991    0.3359 C   0  0  0  0  0  0  0  0  0  0  0  0
   -1.7394    2.8777    0.3340 C   0  0  0  0  0  0  0  0  0  0  0  0
    1.4283    1.0455    0.7300 N   0  0  0  0  0  0  0  0  0  0  0  0
    1.0877   -0.2036    0.3460 C   0  0  0  0  0  0  0  0  0  0  0  0
   -0.2050   -0.5198   -0.0363 C   0  0  0  0  0  0  0  0  0  0  0  0
   -1.1854    0.4784   -0.0372 C   0  0  0  0  0  0  0  0  0  0  0  0
   -2.5801    0.0950   -0.4786 C   0  0  0  0  0  0  0  0  0  0  0  0
   -2.8152    0.3499   -1.9488 C   0  0  0  0  0  0  0  0  0  0  0  0
   -2.2600   -0.2587   -2.8547 O   0  0  0  0  0  0  0  0  0  0  0  0
   -3.7308    1.3450   -2.1206 O   0  0  0  0  0  0  0  0  0  0  0  0
    2.1927   -1.2323    0.3702 C   0  0  0  0  0  0  0  0  0  0  0  0
    2.3626   -2.0261   -0.9399 C   0  0  0  0  0  0  0  0  0  0  0  0
    2.0971   -3.4824   -0.5757 C   0  0  0  0  0  0  0  0  0  0  0  0
    2.5306   -3.5757    0.8769 C   0  0  0  0  0  0  0  0  0  0  0  0
    2.0006   -2.2823    1.4774 C   0  0  0  0  0  0  0  0  0  0  0  0
    2.3174    3.6702    1.5478 C   0  0  0  0  0  0  0  0  0  0  0  0
    2.8593    2.8535    2.7393 C   0  0  0  0  0  0  0  0  0  0  0  0
    4.2024    2.2891    2.2835 C   0  0  0  0  0  0  0  0  0  0  0  0
   -3.9870    1.6755   -3.4909 C   0  0  0  0  0  0  0  0  0  0  0  0
    4.6569    3.2306    1.1807 C   0  0  0  0  0  0  0  0  0  0  0  0
    3.3683    3.5385    0.4337 C   0  0  0  0  0  0  0  0  0  0  0  0
   -4.9771    2.8233   -3.5221 C   0  0  0  0  0  0  0  0  0  0  0  0
   -2.0661    4.9745    0.6992 H   0  0  0  0  0  0  0  0  0  0  0  0
    0.2562    5.3905    1.3884 H   0  0  0  0  0  0  0  0  0  0  0  0
   -2.7750    2.7412    0.0356 H   0  0  0  0  0  0  0  0  0  0  0  0
   -0.4506   -1.5334   -0.3404 H   0  0  0  0  0  0  0  0  0  0  0  0
   -3.3377    0.6012    0.1301 H   0  0  0  0  0  0  0  0  0  0  0  0
   -2.7624   -0.9728   -0.3005 H   0  0  0  0  0  0  0  0  0  0  0  0
    3.1386   -0.7051    0.5562 H   0  0  0  0  0  0  0  0  0  0  0  0
    3.3998   -1.9273   -1.2851 H   0  0  0  0  0  0  0  0  0  0  0  0
    1.7208   -1.6898   -1.7604 H   0  0  0  0  0  0  0  0  0  0  0  0
    2.6446   -4.1767   -1.2195 H   0  0  0  0  0  0  0  0  0  0  0  0
    1.0273   -3.7045   -0.6663 H   0  0  0  0  0  0  0  0  0  0  0  0
    3.6242   -3.6075    0.9476 H   0  0  0  0  0  0  0  0  0  0  0  0
    2.1277   -4.4612    1.3765 H   0  0  0  0  0  0  0  0  0  0  0  0
    2.5349   -2.0097    2.3936 H   0  0  0  0  0  0  0  0  0  0  0  0
    0.9442   -2.4095    1.7435 H   0  0  0  0  0  0  0  0  0  0  0  0
    2.3338    4.7210    1.8726 H   0  0  0  0  0  0  0  0  0  0  0  0
    2.1900    2.0614    3.0893 H   0  0  0  0  0  0  0  0  0  0  0  0
    3.0179    3.5260    3.5920 H   0  0  0  0  0  0  0  0  0  0  0  0
    4.0675    1.2786    1.8818 H   0  0  0  0  0  0  0  0  0  0  0  0
    4.9247    2.2299    3.1029 H   0  0  0  0  0  0  0  0  0  0  0  0
   -4.4103    0.8063   -4.0064 H   0  0  0  0  0  0  0  0  0  0  0  0
   -3.0548    1.9788   -3.9806 H   0  0  0  0  0  0  0  0  0  0  0  0
    5.4145    2.7790    0.5340 H   0  0  0  0  0  0  0  0  0  0  0  0
    5.0746    4.1479    1.6120 H   0  0  0  0  0  0  0  0  0  0  0  0
    3.1419    2.7245   -0.2634 H   0  0  0  0  0  0  0  0  0  0  0  0
    3.4495    4.4561   -0.1585 H   0  0  0  0  0  0  0  0  0  0  0  0
   -5.9080    2.5434   -3.0178 H   0  0  0  0  0  0  0  0  0  0  0  0
   -5.2061    3.1134   -4.5512 H   0  0  0  0  0  0  0  0  0  0  0  0
   -4.5760    3.6925   -2.9902 H   0  0  0  0  0  0  0  0  0  0  0  0
 54 26  1  0
 47 23  1  0
 48 23  1  0
 26 23  1  0
 26 53  1  0
 26 55  1  0
 23 14  1  0
 13 12  2  0
 14 12  1  0
 12 11  1  0
 35 16  1  0
 34 16  1  0
 36 17  1  0
 16 17  1  0
 16 15  1  0
 37 17  1  0
 17 18  1  0
 11 32  1  0
 11 10  1  0
 11 31  1  0
 30  9  1  0
 51 25  1  0
 52 25  1  0
 10  9  1  0
 10  5  2  0
  9  8  2  0
 29  6  1  0
  6  5  1  0
  6  1  2  0
  5  4  1  0
  8 15  1  0
  8  7  1  0
 15 33  1  0
 15 19  1  0
 25 24  1  0
 25 20  1  0
 49 24  1  0
 27  1  1  0
  1  2  1  0
  4  7  2  0
  4  3  1  0
 18 38  1  0
 18 39  1  0
 18 19  1  0
  2  3  2  0
  2 28  1  0
  3 20  1  0
 24 50  1  0
 24 22  1  0
 19 41  1  0
 19 40  1  0
 20 42  1  0
 20 21  1  0
 45 22  1  0
 22 21  1  0
 22 46  1  0
 21 43  1  0
 21 44  1  0
M  END
>  <_TriposChargeType>  (36) 
GASTEIGER

>  <Activity>  (36) 
6.94

$$$$
3_7C
     RDKit          3D

 39 41  0  0  0  0  0  0  0  0999 V2000
   -1.3516    4.1459    0.7164 C   0  0  0  0  0  0  0  0  0  0  0  0
   -0.0352    4.3751    1.0996 C   0  0  0  0  0  0  0  0  0  0  0  0
    0.8835    3.3213    1.0975 C   0  0  0  0  0  0  0  0  0  0  0  0
    0.5190    2.0361    0.7197 C   0  0  0  0  0  0  0  0  0  0  0  0
   -0.8143    1.8089    0.3328 C   0  0  0  0  0  0  0  0  0  0  0  0
   -1.7433    2.8649    0.3334 C   0  0  0  0  0  0  0  0  0  0  0  0
    1.4378    1.0546    0.7332 N   0  0  0  0  0  0  0  0  0  0  0  0
    1.0864   -0.2088    0.3548 C   0  0  0  0  0  0  0  0  0  0  0  0
   -0.2202   -0.5165   -0.0295 C   0  0  0  0  0  0  0  0  0  0  0  0
   -1.1735    0.5094   -0.0408 C   0  0  0  0  0  0  0  0  0  0  0  0
   -0.6392   -1.8899   -0.3831 C   0  0  0  0  0  0  0  0  0  0  0  0
   -0.2853   -2.8975    0.2034 O   0  0  0  0  0  0  0  0  0  0  0  0
   -1.4595   -1.8376   -1.4636 O   0  0  0  0  0  0  0  0  0  0  0  0
    2.2039   -1.2389    0.3986 C   0  0  0  0  0  0  0  0  0  0  0  0
    2.3958   -1.7617    1.8312 C   0  0  0  0  0  0  0  0  0  0  0  0
    3.5148   -2.7990    1.9037 C   0  0  0  0  0  0  0  0  0  0  0  0
    4.8242   -2.2597    1.3356 C   0  0  0  0  0  0  0  0  0  0  0  0
    4.6460   -1.7229   -0.0816 C   0  0  0  0  0  0  0  0  0  0  0  0
    3.5327   -0.6787   -0.1489 C   0  0  0  0  0  0  0  0  0  0  0  0
   -1.9118   -3.1176   -1.9084 C   0  0  0  0  0  0  0  0  0  0  0  0
   -2.0707    4.9611    0.7164 H   0  0  0  0  0  0  0  0  0  0  0  0
    0.2828    5.3699    1.4011 H   0  0  0  0  0  0  0  0  0  0  0  0
    1.9119    3.5069    1.3987 H   0  0  0  0  0  0  0  0  0  0  0  0
   -2.7755    2.6942    0.0360 H   0  0  0  0  0  0  0  0  0  0  0  0
   -2.1997    0.2927   -0.3293 H   0  0  0  0  0  0  0  0  0  0  0  0
    1.9485   -2.0801   -0.2561 H   0  0  0  0  0  0  0  0  0  0  0  0
    1.4666   -2.2087    2.2044 H   0  0  0  0  0  0  0  0  0  0  0  0
    2.6320   -0.9300    2.5083 H   0  0  0  0  0  0  0  0  0  0  0  0
    3.6646   -3.1065    2.9448 H   0  0  0  0  0  0  0  0  0  0  0  0
    3.2166   -3.6953    1.3459 H   0  0  0  0  0  0  0  0  0  0  0  0
    5.1993   -1.4582    1.9839 H   0  0  0  0  0  0  0  0  0  0  0  0
    5.5811   -3.0521    1.3373 H   0  0  0  0  0  0  0  0  0  0  0  0
    5.5867   -1.2812   -0.4291 H   0  0  0  0  0  0  0  0  0  0  0  0
    4.4119   -2.5519   -0.7608 H   0  0  0  0  0  0  0  0  0  0  0  0
    3.8468    0.2047    0.4219 H   0  0  0  0  0  0  0  0  0  0  0  0
    3.4020   -0.3514   -1.1878 H   0  0  0  0  0  0  0  0  0  0  0  0
   -2.4960   -3.6108   -1.1252 H   0  0  0  0  0  0  0  0  0  0  0  0
   -1.0636   -3.7399   -2.2107 H   0  0  0  0  0  0  0  0  0  0  0  0
   -2.5570   -2.9653   -2.7780 H   0  0  0  0  0  0  0  0  0  0  0  0
 39 20  1  0
 38 20  1  0
 20 13  1  0
 20 37  1  0
 13 11  1  0
 36 19  1  0
 34 18  1  0
 33 18  1  0
 11  9  1  0
 11 12  2  0
 25 10  1  0
 26 14  1  0
 19 18  1  0
 19 14  1  0
 19 35  1  0
 18 17  1  0
 10  9  1  0
 10  5  2  0
  9  8  2  0
 24  6  1  0
  5  6  1  0
  5  4  1  0
  6  1  2  0
  8 14  1  0
  8  7  1  0
 14 15  1  0
 21  1  1  0
  1  2  1  0
  4  7  2  0
  4  3  1  0
  3  2  2  0
  3 23  1  0
  2 22  1  0
 17 32  1  0
 17 16  1  0
 17 31  1  0
 30 16  1  0
 15 16  1  0
 15 27  1  0
 15 28  1  0
 16 29  1  0
M  END
>  <_TriposChargeType>  (37) 
GASTEIGER

>  <Activity>  (37) 
4.37

$$$$
3_11A
     RDKit          3D

 36 38  0  0  0  0  0  0  0  0999 V2000
   -1.3359    4.1716    0.7247 C   0  0  0  0  0  0  0  0  0  0  0  0
   -0.0185    4.3777    1.1030 C   0  0  0  0  0  0  0  0  0  0  0  0
    0.8767    3.3069    1.0915 C   0  0  0  0  0  0  0  0  0  0  0  0
    0.4916    2.0277    0.7128 C   0  0  0  0  0  0  0  0  0  0  0  0
   -0.8447    1.7999    0.3309 C   0  0  0  0  0  0  0  0  0  0  0  0
   -1.7473    2.8963    0.3398 C   0  0  0  0  0  0  0  0  0  0  0  0
    1.4257    1.0622    0.7262 N   0  0  0  0  0  0  0  0  0  0  0  0
    1.0941   -0.1978    0.3663 C   0  0  0  0  0  0  0  0  0  0  0  0
   -0.1889   -0.5282   -0.0295 C   0  0  0  0  0  0  0  0  0  0  0  0
   -1.1641    0.4747   -0.0488 C   0  0  0  0  0  0  0  0  0  0  0  0
   -2.5412    0.0957   -0.4510 C   0  0  0  0  0  0  0  0  0  0  0  0
   -3.5597    0.4890    0.0905 O   0  0  0  0  0  0  0  0  0  0  0  0
   -2.4760   -0.7378   -1.5215 O   0  0  0  0  0  0  0  0  0  0  0  0
    2.1803   -1.2432    0.3877 C   0  0  0  0  0  0  0  0  0  0  0  0
    3.2703   -1.0095   -0.6635 C   0  0  0  0  0  0  0  0  0  0  0  0
    4.5299   -1.6768   -0.1064 C   0  0  0  0  0  0  0  0  0  0  0  0
    4.1927   -2.1174    1.3157 C   0  0  0  0  0  0  0  0  0  0  0  0
    2.9681   -1.3002    1.6974 C   0  0  0  0  0  0  0  0  0  0  0  0
   -2.0446    4.9958    0.7287 H   0  0  0  0  0  0  0  0  0  0  0  0
   -3.7529   -1.1498   -2.0117 C   0  0  0  0  0  0  0  0  0  0  0  0
    0.3186    5.3652    1.4066 H   0  0  0  0  0  0  0  0  0  0  0  0
    1.9101    3.4755    1.3872 H   0  0  0  0  0  0  0  0  0  0  0  0
   -2.7876    2.7668    0.0476 H   0  0  0  0  0  0  0  0  0  0  0  0
   -0.4331   -1.5475   -0.3122 H   0  0  0  0  0  0  0  0  0  0  0  0
    1.7386   -2.2348    0.2150 H   0  0  0  0  0  0  0  0  0  0  0  0
    3.4650    0.0588   -0.8196 H   0  0  0  0  0  0  0  0  0  0  0  0
    2.9865   -1.4275   -1.6355 H   0  0  0  0  0  0  0  0  0  0  0  0
    5.3614   -0.9631   -0.1036 H   0  0  0  0  0  0  0  0  0  0  0  0
    4.8356   -2.5324   -0.7175 H   0  0  0  0  0  0  0  0  0  0  0  0
    5.0272   -1.9633    2.0061 H   0  0  0  0  0  0  0  0  0  0  0  0
    3.9458   -3.1858    1.3228 H   0  0  0  0  0  0  0  0  0  0  0  0
    3.2771   -0.3028    2.0331 H   0  0  0  0  0  0  0  0  0  0  0  0
    2.3968   -1.7648    2.5073 H   0  0  0  0  0  0  0  0  0  0  0  0
   -3.5899   -1.8097   -2.8683 H   0  0  0  0  0  0  0  0  0  0  0  0
   -4.3326   -0.2839   -2.3466 H   0  0  0  0  0  0  0  0  0  0  0  0
   -4.2965   -1.7076   -1.2428 H   0  0  0  0  0  0  0  0  0  0  0  0
 34 20  1  0
 35 20  1  0
 20 13  1  0
 20 36  1  0
 27 15  1  0
 13 11  1  0
 26 15  1  0
 29 16  1  0
 15 16  1  0
 15 14  1  0
 11 10  1  0
 11 12  2  0
 24  9  1  0
 16 28  1  0
 16 17  1  0
 10  9  1  0
 10  5  2  0
  9  8  2  0
 23  6  1  0
 25 14  1  0
  5  6  1  0
  5  4  1  0
  6  1  2  0
  8 14  1  0
  8  7  1  0
 14 18  1  0
  4  7  2  0
  4  3  1  0
  1 19  1  0
  1  2  1  0
  3  2  2  0
  3 22  1  0
  2 21  1  0
 17 31  1  0
 17 18  1  0
 17 30  1  0
 18 32  1  0
 18 33  1  0
M  END
>  <_TriposChargeType>  (38) 
GASTEIGER

>  <Activity>  (38) 
2.92

$$$$
4_4D
     RDKit          3D

 47 51  0  0  0  0  0  0  0  0999 V2000
   -1.3343    4.1752    0.7061 C   0  0  0  0  0  0  0  0  0  0  0  0
   -0.0212    4.3772    1.1036 C   0  0  0  0  0  0  0  0  0  0  0  0
    0.8729    3.3047    1.1034 C   0  0  0  0  0  0  0  0  0  0  0  0
    0.4895    2.0256    0.7232 C   0  0  0  0  0  0  0  0  0  0  0  0
   -0.8455    1.8016    0.3437 C   0  0  0  0  0  0  0  0  0  0  0  0
   -1.7457    2.8998    0.3236 C   0  0  0  0  0  0  0  0  0  0  0  0
    1.4206    1.0562    0.7303 N   0  0  0  0  0  0  0  0  0  0  0  0
    1.1054   -0.2009    0.3379 C   0  0  0  0  0  0  0  0  0  0  0  0
   -0.1878   -0.5227   -0.0413 C   0  0  0  0  0  0  0  0  0  0  0  0
   -1.1652    0.4742   -0.0135 C   0  0  0  0  0  0  0  0  0  0  0  0
   -2.5347    0.0460   -0.3726 C   0  0  0  0  0  0  0  0  0  0  0  0
   -2.7428   -0.5614   -1.4178 O   0  0  0  0  0  0  0  0  0  0  0  0
   -3.5120    0.3206    0.5736 N   0  0  0  0  0  0  0  0  0  0  0  0
   -4.8423   -0.0774    0.3334 N   0  0  0  0  0  0  0  0  0  0  0  0
    2.2200   -1.2498    0.3381 C   0  0  2  0  0  0  0  0  0  0  0  0
    2.4180   -1.8403   -1.0857 C   0  0  0  0  0  0  0  0  0  0  0  0
    3.5248   -2.9096   -1.0876 C   0  0  2  0  0  0  0  0  0  0  0  0
    3.1422   -4.0366   -0.1139 C   0  0  0  0  0  0  0  0  0  0  0  0
    2.9874   -3.4759    1.3095 C   0  0  2  0  0  0  0  0  0  0  0  0
    1.8793   -2.4079    1.3163 C   0  0  0  0  0  0  0  0  0  0  0  0
    4.8473   -2.2741   -0.6340 C   0  0  0  0  0  0  0  0  0  0  0  0
    4.6951   -1.7056    0.7846 C   0  0  2  0  0  0  0  0  0  0  0  0
    4.3128   -2.8371    1.7503 C   0  0  0  0  0  0  0  0  0  0  0  0
    3.5840   -0.6424    0.7868 C   0  0  0  0  0  0  0  0  0  0  0  0
   -2.0348    5.0065    0.6846 H   0  0  0  0  0  0  0  0  0  0  0  0
    0.3172    5.3660    1.4023 H   0  0  0  0  0  0  0  0  0  0  0  0
    1.9057    3.4734    1.4019 H   0  0  0  0  0  0  0  0  0  0  0  0
   -2.7740    2.7763   -0.0110 H   0  0  0  0  0  0  0  0  0  0  0  0
   -0.4515   -1.5305   -0.3480 H   0  0  0  0  0  0  0  0  0  0  0  0
   -3.2777    0.7567    1.4644 H   0  0  0  0  0  0  0  0  0  0  0  0
   -5.0485    0.1457   -0.6488 H   0  0  0  0  0  0  0  0  0  0  0  0
   -4.8581   -1.1032    0.3390 H   0  0  0  0  0  0  0  0  0  0  0  0
    2.6730   -1.0412   -1.7947 H   0  0  0  0  0  0  0  0  0  0  0  0
    1.4898   -2.2943   -1.4553 H   0  0  0  0  0  0  0  0  0  0  0  0
    3.6398   -3.3182   -2.0978 H   0  0  0  0  0  0  0  0  0  0  0  0
    3.9119   -4.8181   -0.1260 H   0  0  0  0  0  0  0  0  0  0  0  0
    2.2053   -4.5081   -0.4353 H   0  0  0  0  0  0  0  0  0  0  0  0
    2.7219   -4.2859    1.9981 H   0  0  0  0  0  0  0  0  0  0  0  0
    1.7472   -2.0171    2.3342 H   0  0  0  0  0  0  0  0  0  0  0  0
    0.9288   -2.8843    1.0443 H   0  0  0  0  0  0  0  0  0  0  0  0
    5.1385   -1.4769   -1.3289 H   0  0  0  0  0  0  0  0  0  0  0  0
    5.6492   -3.0223   -0.6539 H   0  0  0  0  0  0  0  0  0  0  0  0
    5.6402   -1.2520    1.1036 H   0  0  0  0  0  0  0  0  0  0  0  0
    4.2194   -2.4448    2.7704 H   0  0  0  0  0  0  0  0  0  0  0  0
    5.1055   -3.5950    1.7722 H   0  0  0  0  0  0  0  0  0  0  0  0
    3.4989   -0.2142    1.7948 H   0  0  0  0  0  0  0  0  0  0  0  0
    3.8729    0.1817    0.1203 H   0  0  0  0  0  0  0  0  0  0  0  0
 17 35  1  6
 33 16  1  0
 34 16  1  0
 12 11  2  0
 41 21  1  0
 17 16  1  0
 17 21  1  0
 17 18  1  0
 16 15  1  0
 42 21  1  0
 31 14  1  0
 21 22  1  0
 37 18  1  0
 11 10  1  0
 11 13  1  0
 29  9  1  0
 36 18  1  0
 18 19  1  0
  9 10  1  0
  9  8  2  0
 10  5  2  0
 28  6  1  0
 47 24  1  0
  6  5  1  0
  6  1  2  0
 14 32  1  0
 14 13  1  0
 15  8  1  6
  8  7  1  0
 15 24  1  0
 15 20  1  0
  5  4  1  0
 13 30  1  0
 25  1  1  0
  1  2  1  0
  4  7  2  0
  4  3  1  0
 22 24  1  0
 22 43  1  1
 22 23  1  0
 24 46  1  0
 40 20  1  0
  3  2  2  0
  3 27  1  0
  2 26  1  0
 19 20  1  0
 19 23  1  0
 19 38  1  1
 20 39  1  0
 23 45  1  0
 23 44  1  0
M  END
>  <_TriposChargeType>  (39) 
GASTEIGER

>  <Activity>  (39) 
4.02

$$$$
2_4C
     RDKit          3D

 40 42  0  0  0  0  0  0  0  0999 V2000
   -1.3557    4.1374    0.7151 C   0  0  0  0  0  0  0  0  0  0  0  0
   -0.0383    4.3794    1.0987 C   0  0  0  0  0  0  0  0  0  0  0  0
    0.8942    3.3377    1.1019 C   0  0  0  0  0  0  0  0  0  0  0  0
    0.5234    2.0376    0.7202 C   0  0  0  0  0  0  0  0  0  0  0  0
   -0.8120    1.8060    0.3342 C   0  0  0  0  0  0  0  0  0  0  0  0
   -1.7436    2.8563    0.3339 C   0  0  0  0  0  0  0  0  0  0  0  0
    1.4448    1.0436    0.7304 N   0  0  0  0  0  0  0  0  0  0  0  0
    1.0734   -0.2070    0.3594 C   0  0  0  0  0  0  0  0  0  0  0  0
   -0.2244   -0.5084   -0.0324 C   0  0  0  0  0  0  0  0  0  0  0  0
   -1.1731    0.5083   -0.0444 C   0  0  0  0  0  0  0  0  0  0  0  0
    2.1358   -1.2889    0.3868 C   0  0  0  0  0  0  0  0  0  0  0  0
    2.6652   -1.5037    1.8140 C   0  0  0  0  0  0  0  0  0  0  0  0
    3.7588   -2.5694    1.8501 C   0  0  0  0  0  0  0  0  0  0  0  0
    2.2498    3.5040    1.4777 N   0  0  0  0  0  0  0  0  0  0  0  0
    2.8905    4.6452    1.9019 C   0  0  0  0  0  0  0  0  0  0  0  0
    2.3901    5.7544    2.0547 O   0  0  0  0  0  0  0  0  0  0  0  0
    4.8925   -2.2456    0.8814 C   0  0  0  0  0  0  0  0  0  0  0  0
    4.3758   -2.0259   -0.5375 C   0  0  0  0  0  0  0  0  0  0  0  0
    3.2842   -0.9583   -0.5803 C   0  0  0  0  0  0  0  0  0  0  0  0
    4.3460    4.4065    2.2170 C   0  0  0  0  0  0  0  0  0  0  0  0
   -2.0768    4.9513    0.7148 H   0  0  0  0  0  0  0  0  0  0  0  0
    0.2351    5.3887    1.3902 H   0  0  0  0  0  0  0  0  0  0  0  0
   -2.7753    2.6823    0.0368 H   0  0  0  0  0  0  0  0  0  0  0  0
   -0.5037   -1.5152   -0.3255 H   0  0  0  0  0  0  0  0  0  0  0  0
   -2.1917    0.2821   -0.3496 H   0  0  0  0  0  0  0  0  0  0  0  0
    1.6829   -2.2334    0.0542 H   0  0  0  0  0  0  0  0  0  0  0  0
    1.8451   -1.8018    2.4790 H   0  0  0  0  0  0  0  0  0  0  0  0
    3.0688   -0.5659    2.2182 H   0  0  0  0  0  0  0  0  0  0  0  0
    4.1567   -2.6543    2.8676 H   0  0  0  0  0  0  0  0  0  0  0  0
    3.3265   -3.5445    1.5938 H   0  0  0  0  0  0  0  0  0  0  0  0
    2.7780    2.6351    1.4179 H   0  0  0  0  0  0  0  0  0  0  0  0
    5.4165   -1.3440    1.2220 H   0  0  0  0  0  0  0  0  0  0  0  0
    5.6245   -3.0610    0.8849 H   0  0  0  0  0  0  0  0  0  0  0  0
    5.2052   -1.7307   -1.1900 H   0  0  0  0  0  0  0  0  0  0  0  0
    3.9791   -2.9694   -0.9321 H   0  0  0  0  0  0  0  0  0  0  0  0
    3.7282    0.0143   -0.3302 H   0  0  0  0  0  0  0  0  0  0  0  0
    2.9007   -0.8713   -1.6045 H   0  0  0  0  0  0  0  0  0  0  0  0
    4.9156    5.3147    1.9997 H   0  0  0  0  0  0  0  0  0  0  0  0
    4.7579    3.5964    1.6083 H   0  0  0  0  0  0  0  0  0  0  0  0
    4.4483    4.1545    3.2757 H   0  0  0  0  0  0  0  0  0  0  0  0
 37 19  1  0
 34 18  1  0
 35 18  1  0
 19 18  1  0
 19 36  1  0
 19 11  1  0
 18 17  1  0
 25 10  1  0
 24  9  1  0
 10  9  1  0
 10  5  2  0
  9  8  2  0
 23  6  1  0
 26 11  1  0
  6  5  1  0
  6  1  2  0
  5  4  1  0
  8 11  1  0
  8  7  1  0
 11 12  1  0
 21  1  1  0
  1  2  1  0
  4  7  2  0
  4  3  1  0
 17 33  1  0
 17 32  1  0
 17 13  1  0
  2  3  2  0
  2 22  1  0
  3 14  1  0
 31 14  1  0
 14 15  1  0
 30 13  1  0
 39 20  1  0
 12 13  1  0
 12 28  1  0
 12 27  1  0
 13 29  1  0
 15 16  2  0
 15 20  1  0
 38 20  1  0
 20 40  1  0
M  END
>  <_TriposChargeType>  (40) 
GASTEIGER

>  <Activity>  (40) 
2.64

$$$$
4_2F
     RDKit          3D

 49 52  0  0  0  0  0  0  0  0999 V2000
   -1.3449    4.1503    0.7213 C   0  0  0  0  0  0  0  0  0  0  0  0
   -0.0314    4.3831    1.0995 C   0  0  0  0  0  0  0  0  0  0  0  0
    0.9076    3.3395    1.1073 C   0  0  0  0  0  0  0  0  0  0  0  0
    0.5179    2.0417    0.7195 C   0  0  0  0  0  0  0  0  0  0  0  0
   -0.8269    1.7911    0.3262 C   0  0  0  0  0  0  0  0  0  0  0  0
   -1.7367    2.8716    0.3421 C   0  0  0  0  0  0  0  0  0  0  0  0
    1.4398    1.0645    0.7300 N   0  0  0  0  0  0  0  0  0  0  0  0
    1.0683   -0.1866    0.3656 C   0  0  0  0  0  0  0  0  0  0  0  0
   -0.2106   -0.5286   -0.0297 C   0  0  0  0  0  0  0  0  0  0  0  0
   -1.1945    0.4644   -0.0647 C   0  0  0  0  0  0  0  0  0  0  0  0
    2.1416   -1.2292    0.4119 C   0  0  0  0  0  0  0  0  0  0  0  0
    1.9315   -2.3989    0.1030 O   0  0  0  0  0  0  0  0  0  0  0  0
    3.3767   -0.7497    0.8283 N   0  0  0  0  0  0  0  0  0  0  0  0
   -2.6236    0.1314   -0.4946 C   0  0  0  0  0  0  0  0  0  0  0  0
   -3.5568   -0.0455    0.7103 C   0  0  0  0  0  0  0  0  0  0  0  0
   -3.4088   -1.5124    1.0910 C   0  0  0  0  0  0  0  0  0  0  0  0
   -3.1889   -2.2490   -0.2261 C   0  0  0  0  0  0  0  0  0  0  0  0
   -2.8501   -1.1800   -1.2674 C   0  0  0  0  0  0  0  0  0  0  0  0
    2.3491    3.5828    1.5322 C   0  0  0  0  0  0  0  0  0  0  0  0
    4.4945   -1.6039    0.8881 N   0  0  0  0  0  0  0  0  0  0  0  0
    2.6754    3.0115    2.9201 C   0  0  0  0  0  0  0  0  0  0  0  0
    3.9473    3.7317    3.3740 C   0  0  0  0  0  0  0  0  0  0  0  0
    4.1723    4.8701    2.3827 C   0  0  0  0  0  0  0  0  0  0  0  0
    2.8380    5.0305    1.6685 C   0  0  0  0  0  0  0  0  0  0  0  0
   -2.0659    4.9642    0.7227 H   0  0  0  0  0  0  0  0  0  0  0  0
    0.2402    5.3937    1.3896 H   0  0  0  0  0  0  0  0  0  0  0  0
   -2.7775    2.7365    0.0600 H   0  0  0  0  0  0  0  0  0  0  0  0
   -0.4149   -1.5595   -0.2967 H   0  0  0  0  0  0  0  0  0  0  0  0
    3.4636    0.2485    1.0308 H   0  0  0  0  0  0  0  0  0  0  0  0
   -2.9711    0.9439   -1.1437 H   0  0  0  0  0  0  0  0  0  0  0  0
   -4.5928    0.1448    0.4023 H   0  0  0  0  0  0  0  0  0  0  0  0
   -3.3341    0.6146    1.5541 H   0  0  0  0  0  0  0  0  0  0  0  0
   -4.2847   -1.8865    1.6297 H   0  0  0  0  0  0  0  0  0  0  0  0
   -2.5386   -1.6481    1.7439 H   0  0  0  0  0  0  0  0  0  0  0  0
   -4.0905   -2.7952   -0.5248 H   0  0  0  0  0  0  0  0  0  0  0  0
   -2.3840   -2.9849   -0.1276 H   0  0  0  0  0  0  0  0  0  0  0  0
   -3.7228   -1.0568   -1.9228 H   0  0  0  0  0  0  0  0  0  0  0  0
   -2.0176   -1.4700   -1.9156 H   0  0  0  0  0  0  0  0  0  0  0  0
    3.0005    3.1044    0.7855 H   0  0  0  0  0  0  0  0  0  0  0  0
    4.4810   -2.1721    0.0328 H   0  0  0  0  0  0  0  0  0  0  0  0
    4.3091   -2.2899    1.6268 H   0  0  0  0  0  0  0  0  0  0  0  0
    2.8192    1.9264    2.9043 H   0  0  0  0  0  0  0  0  0  0  0  0
    1.8640    3.2195    3.6293 H   0  0  0  0  0  0  0  0  0  0  0  0
    4.8078    3.0542    3.3847 H   0  0  0  0  0  0  0  0  0  0  0  0
    3.8202    4.1165    4.3918 H   0  0  0  0  0  0  0  0  0  0  0  0
    4.9509    4.5879    1.6639 H   0  0  0  0  0  0  0  0  0  0  0  0
    4.4925    5.7922    2.8767 H   0  0  0  0  0  0  0  0  0  0  0  0
    2.9433    5.5307    0.7008 H   0  0  0  0  0  0  0  0  0  0  0  0
    2.1735    5.6337    2.2977 H   0  0  0  0  0  0  0  0  0  0  0  0
 37 18  1  0
 38 18  1  0
 18 14  1  0
 18 17  1  0
 30 14  1  0
 35 17  1  0
 14 10  1  0
 14 15  1  0
 28  9  1  0
 17 36  1  0
 17 16  1  0
 10  9  1  0
 10  5  2  0
  9  8  2  0
 40 20  1  0
 27  6  1  0
 12 11  2  0
  5  6  1  0
  5  4  1  0
  6  1  2  0
  8 11  1  0
  8  7  1  0
 31 15  1  0
 11 13  1  0
 48 24  1  0
 15 16  1  0
 15 32  1  0
  4  7  2  0
  4  3  1  0
  1 25  1  0
  1  2  1  0
 39 19  1  0
 13 20  1  0
 13 29  1  0
 20 41  1  0
 16 33  1  0
 16 34  1  0
  2  3  2  0
  2 26  1  0
  3 19  1  0
 19 24  1  0
 19 21  1  0
 46 23  1  0
 24 49  1  0
 24 23  1  0
 23 47  1  0
 23 22  1  0
 42 21  1  0
 21 22  1  0
 21 43  1  0
 22 44  1  0
 22 45  1  0
M  END
>  <_TriposChargeType>  (41) 
GASTEIGER

>  <Activity>  (41) 
5.77

$$$$
4_5E
     RDKit          3D

 52 55  0  0  0  0  0  0  0  0999 V2000
   -1.3486    4.1521    0.7197 C   0  0  0  0  0  0  0  0  0  0  0  0
   -0.0343    4.3819    1.1027 C   0  0  0  0  0  0  0  0  0  0  0  0
    0.9060    3.3385    1.1013 C   0  0  0  0  0  0  0  0  0  0  0  0
    0.5133    2.0412    0.7180 C   0  0  0  0  0  0  0  0  0  0  0  0
   -0.8273    1.7999    0.3305 C   0  0  0  0  0  0  0  0  0  0  0  0
   -1.7414    2.8758    0.3344 C   0  0  0  0  0  0  0  0  0  0  0  0
    1.4239    1.0493    0.7318 N   0  0  0  0  0  0  0  0  0  0  0  0
    1.0834   -0.2031    0.3599 C   0  0  0  0  0  0  0  0  0  0  0  0
   -0.2034   -0.5226   -0.0360 C   0  0  0  0  0  0  0  0  0  0  0  0
   -1.1830    0.4780   -0.0452 C   0  0  0  0  0  0  0  0  0  0  0  0
   -2.5923    0.0936   -0.4485 C   0  0  0  0  0  0  0  0  0  0  0  0
   -3.6118    0.1556    0.6757 C   0  0  0  0  0  0  0  0  0  0  0  0
   -4.7309    0.6442    0.5157 O   0  0  0  0  0  0  0  0  0  0  0  0
   -3.2159   -0.4388    1.8667 N   0  0  0  0  0  0  0  0  0  0  0  0
   -4.0905   -0.4257    2.9745 N   0  0  0  0  0  0  0  0  0  0  0  0
    2.1732   -1.2533    0.3684 C   0  0  0  0  0  0  0  0  0  0  0  0
    3.2336   -0.9774   -0.7148 C   0  0  0  0  0  0  0  0  0  0  0  0
    4.5811   -1.0656   -0.0083 C   0  0  0  0  0  0  0  0  0  0  0  0
    4.2779   -0.6264    1.4127 C   0  0  0  0  0  0  0  0  0  0  0  0
    2.9427   -1.2980    1.7009 C   0  0  0  0  0  0  0  0  0  0  0  0
    2.3533    3.5755    1.5061 C   0  0  0  0  0  0  0  0  0  0  0  0
    3.3248    3.5635    0.3169 C   0  0  0  0  0  0  0  0  0  0  0  0
    4.5996    4.2402    0.8247 C   0  0  0  0  0  0  0  0  0  0  0  0
    4.2360    4.8975    2.1538 C   0  0  0  0  0  0  0  0  0  0  0  0
    2.7140    4.9030    2.1843 C   0  0  0  0  0  0  0  0  0  0  0  0
   -2.0679    4.9675    0.7189 H   0  0  0  0  0  0  0  0  0  0  0  0
    0.2392    5.3905    1.3975 H   0  0  0  0  0  0  0  0  0  0  0  0
   -2.7780    2.7412    0.0343 H   0  0  0  0  0  0  0  0  0  0  0  0
   -0.4421   -1.5393   -0.3353 H   0  0  0  0  0  0  0  0  0  0  0  0
   -2.6179   -0.9266   -0.8514 H   0  0  0  0  0  0  0  0  0  0  0  0
   -2.9209    0.7492   -1.2639 H   0  0  0  0  0  0  0  0  0  0  0  0
   -2.2499   -0.7299    2.0096 H   0  0  0  0  0  0  0  0  0  0  0  0
   -5.0393   -0.5761    2.6073 H   0  0  0  0  0  0  0  0  0  0  0  0
   -4.1278    0.5370    3.3257 H   0  0  0  0  0  0  0  0  0  0  0  0
    1.7223   -2.2396    0.1994 H   0  0  0  0  0  0  0  0  0  0  0  0
    3.1169    0.0169   -1.1630 H   0  0  0  0  0  0  0  0  0  0  0  0
    3.1700   -1.7049   -1.5313 H   0  0  0  0  0  0  0  0  0  0  0  0
    5.3407   -0.4395   -0.4854 H   0  0  0  0  0  0  0  0  0  0  0  0
    4.9407   -2.1014   -0.0151 H   0  0  0  0  0  0  0  0  0  0  0  0
    4.1794    0.4638    1.4645 H   0  0  0  0  0  0  0  0  0  0  0  0
    5.0562   -0.9333    2.1172 H   0  0  0  0  0  0  0  0  0  0  0  0
    2.4169   -0.8289    2.5388 H   0  0  0  0  0  0  0  0  0  0  0  0
    3.1248   -2.3453    1.9748 H   0  0  0  0  0  0  0  0  0  0  0  0
    2.6367    2.7786    2.2100 H   0  0  0  0  0  0  0  0  0  0  0  0
    2.9164    4.1364   -0.5256 H   0  0  0  0  0  0  0  0  0  0  0  0
    3.5316    2.5535   -0.0504 H   0  0  0  0  0  0  0  0  0  0  0  0
    4.9501    4.9825    0.0994 H   0  0  0  0  0  0  0  0  0  0  0  0
    5.4063    3.5126    0.9653 H   0  0  0  0  0  0  0  0  0  0  0  0
    4.6558    5.9036    2.2465 H   0  0  0  0  0  0  0  0  0  0  0  0
    4.6254    4.2956    2.9835 H   0  0  0  0  0  0  0  0  0  0  0  0
    2.3544    5.7679    1.6148 H   0  0  0  0  0  0  0  0  0  0  0  0
    2.3204    4.9749    3.2029 H   0  0  0  0  0  0  0  0  0  0  0  0
 37 17  1  0
 31 11  1  0
 36 17  1  0
 30 11  1  0
 17 18  1  0
 17 16  1  0
 45 22  1  0
 38 18  1  0
 11 10  1  0
 11 12  1  0
 29  9  1  0
 46 22  1  0
 10  9  1  0
 10  5  2  0
  9  8  2  0
 39 18  1  0
 18 19  1  0
 28  6  1  0
 47 23  1  0
 35 16  1  0
 22 23  1  0
 22 21  1  0
  5  6  1  0
  5  4  1  0
  6  1  2  0
  8 16  1  0
  8  7  1  0
 16 20  1  0
 13 12  2  0
 12 14  1  0
  4  7  2  0
  4  3  1  0
 26  1  1  0
  1  2  1  0
 23 48  1  0
 23 24  1  0
  3  2  2  0
  3 21  1  0
  2 27  1  0
 19 40  1  0
 19 20  1  0
 19 41  1  0
 21 25  1  0
 21 44  1  0
 51 25  1  0
 20 43  1  0
 20 42  1  0
 14 32  1  0
 14 15  1  0
 24 25  1  0
 24 49  1  0
 24 50  1  0
 25 52  1  0
 33 15  1  0
 15 34  1  0
M  END
>  <_TriposChargeType>  (42) 
GASTEIGER

>  <Activity>  (42) 
5.04

$$$$
3_2
     RDKit          3D

 23 24  0  0  0  0  0  0  0  0999 V2000
   -1.3511    4.1397    0.7168 C   0  0  0  0  0  0  0  0  0  0  0  0
   -0.0344    4.3715    1.0982 C   0  0  0  0  0  0  0  0  0  0  0  0
    0.8870    3.3200    1.0958 C   0  0  0  0  0  0  0  0  0  0  0  0
    0.5255    2.0336    0.7197 C   0  0  0  0  0  0  0  0  0  0  0  0
   -0.8131    1.8033    0.3332 C   0  0  0  0  0  0  0  0  0  0  0  0
   -1.7421    2.8581    0.3345 C   0  0  0  0  0  0  0  0  0  0  0  0
    1.4497    1.0595    0.7351 N   0  0  0  0  0  0  0  0  0  0  0  0
    1.0682   -0.1909    0.3619 C   0  0  0  0  0  0  0  0  0  0  0  0
   -0.2247   -0.5088   -0.0324 C   0  0  0  0  0  0  0  0  0  0  0  0
   -1.1762    0.5050   -0.0458 C   0  0  0  0  0  0  0  0  0  0  0  0
    2.0963   -1.2762    0.3783 C   0  0  0  0  0  0  0  0  0  0  0  0
    1.8608   -2.4345    0.0630 O   0  0  0  0  0  0  0  0  0  0  0  0
    3.3001   -0.7962    0.7846 O   0  0  0  0  0  0  0  0  0  0  0  0
   -2.0714    4.9539    0.7169 H   0  0  0  0  0  0  0  0  0  0  0  0
    0.2816    5.3673    1.3984 H   0  0  0  0  0  0  0  0  0  0  0  0
    1.9153    3.5097    1.3955 H   0  0  0  0  0  0  0  0  0  0  0  0
   -2.7744    2.6865    0.0377 H   0  0  0  0  0  0  0  0  0  0  0  0
   -0.4884   -1.5209   -0.3232 H   0  0  0  0  0  0  0  0  0  0  0  0
   -2.1946    0.2780   -0.3514 H   0  0  0  0  0  0  0  0  0  0  0  0
    4.3367   -1.7750    0.8257 C   0  0  0  0  0  0  0  0  0  0  0  0
    5.2538   -1.2844    1.1632 H   0  0  0  0  0  0  0  0  0  0  0  0
    4.5129   -2.1896   -0.1718 H   0  0  0  0  0  0  0  0  0  0  0  0
    4.0871   -2.5689    1.5368 H   0  0  0  0  0  0  0  0  0  0  0  0
 19 10  1  0
 18  9  1  0
 22 20  1  0
 10  9  1  0
 10  5  2  0
  9  8  2  0
 17  6  1  0
 12 11  2  0
  5  6  1  0
  5  4  1  0
  6  1  2  0
  8 11  1  0
  8  7  1  0
 11 13  1  0
  1 14  1  0
  1  2  1  0
  4  7  2  0
  4  3  1  0
 13 20  1  0
 20 21  1  0
 20 23  1  0
  3  2  2  0
  3 16  1  0
  2 15  1  0
M  END
>  <_TriposChargeType>  (43) 
GASTEIGER

>  <Activity>  (43) 
3.47

$$$$
3_12B
     RDKit          3D

 36 38  0  0  0  0  0  0  0  0999 V2000
   -1.3399    4.1687    0.7437 C   0  0  0  0  0  0  0  0  0  0  0  0
   -0.0182    4.3766    1.1056 C   0  0  0  0  0  0  0  0  0  0  0  0
    0.8788    3.3075    1.0802 C   0  0  0  0  0  0  0  0  0  0  0  0
    0.4928    2.0301    0.6972 C   0  0  0  0  0  0  0  0  0  0  0  0
   -0.8418    1.8051    0.3098 C   0  0  0  0  0  0  0  0  0  0  0  0
   -1.7513    2.8953    0.3524 C   0  0  0  0  0  0  0  0  0  0  0  0
    1.4230    1.0612    0.7260 N   0  0  0  0  0  0  0  0  0  0  0  0
    1.0921   -0.2030    0.3868 C   0  0  0  0  0  0  0  0  0  0  0  0
   -0.1911   -0.5302   -0.0142 C   0  0  0  0  0  0  0  0  0  0  0  0
   -1.1557    0.4796   -0.0704 C   0  0  0  0  0  0  0  0  0  0  0  0
   -2.4930    0.0485   -0.5255 C   0  0  0  0  0  0  0  0  0  0  0  0
   -3.0363   -0.9986   -0.2260 O   0  0  0  0  0  0  0  0  0  0  0  0
   -3.0335    0.8890   -1.4225 O   0  0  0  0  0  0  0  0  0  0  0  0
    2.1708   -1.2735    0.4493 C   0  0  0  0  0  0  0  0  0  0  0  0
    2.7102   -1.4819    1.8753 C   0  0  0  0  0  0  0  0  0  0  0  0
    3.7578   -0.4562    2.3065 C   0  0  0  0  0  0  0  0  0  0  0  0
    4.8777   -0.3238    1.2815 C   0  0  0  0  0  0  0  0  0  0  0  0
    4.3390   -0.0015   -0.1071 C   0  0  0  0  0  0  0  0  0  0  0  0
    3.3006   -1.0247   -0.5651 C   0  0  0  0  0  0  0  0  0  0  0  0
   -2.0509    4.9906    0.7652 H   0  0  0  0  0  0  0  0  0  0  0  0
    0.3200    5.3626    1.4129 H   0  0  0  0  0  0  0  0  0  0  0  0
    1.9131    3.4744    1.3740 H   0  0  0  0  0  0  0  0  0  0  0  0
   -2.7959    2.7609    0.0824 H   0  0  0  0  0  0  0  0  0  0  0  0
   -0.4468   -1.5499   -0.2880 H   0  0  0  0  0  0  0  0  0  0  0  0
   -3.8664    0.4487   -1.6935 H   0  0  0  0  0  0  0  0  0  0  0  0
    1.6940   -2.2201    0.1577 H   0  0  0  0  0  0  0  0  0  0  0  0
    3.1771   -2.4751    1.9203 H   0  0  0  0  0  0  0  0  0  0  0  0
    1.8885   -1.4944    2.6020 H   0  0  0  0  0  0  0  0  0  0  0  0
    3.2889    0.5203    2.4687 H   0  0  0  0  0  0  0  0  0  0  0  0
    4.1825   -0.7574    3.2713 H   0  0  0  0  0  0  0  0  0  0  0  0
    5.5750    0.4604    1.5972 H   0  0  0  0  0  0  0  0  0  0  0  0
    5.4486   -1.2598    1.2426 H   0  0  0  0  0  0  0  0  0  0  0  0
    3.9071    1.0053   -0.1111 H   0  0  0  0  0  0  0  0  0  0  0  0
    5.1688    0.0166   -0.8233 H   0  0  0  0  0  0  0  0  0  0  0  0
    2.8896   -0.7207   -1.5357 H   0  0  0  0  0  0  0  0  0  0  0  0
    3.8214   -1.9768   -0.7348 H   0  0  0  0  0  0  0  0  0  0  0  0
 25 13  1  0
 35 19  1  0
 13 11  1  0
 34 18  1  0
 36 19  1  0
 19 18  1  0
 19 14  1  0
 11 12  2  0
 11 10  1  0
 24  9  1  0
 33 18  1  0
 18 17  1  0
 10  9  1  0
 10  5  2  0
  9  8  2  0
 23  6  1  0
 26 14  1  0
  5  6  1  0
  5  4  1  0
  6  1  2  0
  8 14  1  0
  8  7  1  0
 14 15  1  0
  4  7  2  0
  4  3  1  0
  1 20  1  0
  1  2  1  0
  3  2  2  0
  3 22  1  0
  2 21  1  0
 32 17  1  0
 17 31  1  0
 17 16  1  0
 15 27  1  0
 15 16  1  0
 15 28  1  0
 16 29  1  0
 16 30  1  0
M  END
>  <_TriposChargeType>  (44) 
GASTEIGER

>  <Activity>  (44) 
3.66

$$$$
2_13B
     RDKit          3D

 39 40  0  0  0  0  0  0  0  0999 V2000
   -1.3165    4.2003    0.6938 C   0  0  0  0  0  0  0  0  0  0  0  0
   -0.0059    4.4131    1.0690 C   0  0  0  0  0  0  0  0  0  0  0  0
    0.8525    3.3154    1.0924 C   0  0  0  0  0  0  0  0  0  0  0  0
    0.4933    2.0189    0.7309 C   0  0  0  0  0  0  0  0  0  0  0  0
   -0.8548    1.7858    0.3443 C   0  0  0  0  0  0  0  0  0  0  0  0
   -1.7663    2.8964    0.4221 C   0  0  0  0  0  0  0  0  0  0  0  0
    1.4271    1.0440    0.7497 N   0  0  0  0  0  0  0  0  0  0  0  0
    1.0912   -0.1983    0.3685 C   0  0  0  0  0  0  0  0  0  0  0  0
   -0.1679   -0.5357   -0.0631 C   0  0  0  0  0  0  0  0  0  0  0  0
   -1.1640    0.4511   -0.0906 C   0  0  0  0  0  0  0  0  0  0  0  0
   -2.4986    0.0269   -0.6736 C   0  0  0  0  0  0  0  0  0  0  0  0
   -2.6689    0.4839   -2.1162 C   0  0  0  0  0  0  0  0  0  0  0  0
    2.2161    3.5640    1.4880 N   0  0  0  0  0  4  0  0  0  0  0  0
    2.9852    3.9869    0.6131 O   0  0  0  0  0  0  0  0  0  0  0  0
    2.4877    3.4242    2.6887 O   0  0  0  0  0  1  0  0  0  0  0  0
   -3.1048    2.6660    0.2015 O   0  0  0  0  0  0  0  0  0  0  0  0
   -2.1179    5.3098    0.6477 O   0  0  0  0  0  0  0  0  0  0  0  0
   -3.9501    2.9513    1.3362 C   0  0  0  0  0  0  0  0  0  0  0  0
   -3.7980    1.9004    2.4363 C   0  0  0  0  0  0  0  0  0  0  0  0
   -5.3845    2.9568    0.8137 C   0  0  0  0  0  0  0  0  0  0  0  0
    0.3422    5.4095    1.3265 H   0  0  0  0  0  0  0  0  0  0  0  0
    1.8914   -0.9320    0.4071 H   0  0  0  0  0  0  0  0  0  0  0  0
   -0.3654   -1.5526   -0.3886 H   0  0  0  0  0  0  0  0  0  0  0  0
   -2.5781   -1.0682   -0.6506 H   0  0  0  0  0  0  0  0  0  0  0  0
   -3.3301    0.3637   -0.0535 H   0  0  0  0  0  0  0  0  0  0  0  0
   -3.6347    0.1468   -2.5060 H   0  0  0  0  0  0  0  0  0  0  0  0
   -1.8829    0.0672   -2.7554 H   0  0  0  0  0  0  0  0  0  0  0  0
   -2.6296    1.5733   -2.2096 H   0  0  0  0  0  0  0  0  0  0  0  0
   -3.7472    3.9414    1.7559 H   0  0  0  0  0  0  0  0  0  0  0  0
   -2.7770    1.8868    2.8308 H   0  0  0  0  0  0  0  0  0  0  0  0
   -4.0091    0.8945    2.0607 H   0  0  0  0  0  0  0  0  0  0  0  0
   -4.4784    2.1058    3.2690 H   0  0  0  0  0  0  0  0  0  0  0  0
   -5.6419    1.9919    0.3627 H   0  0  0  0  0  0  0  0  0  0  0  0
   -5.5013    3.7120    0.0289 H   0  0  0  0  0  0  0  0  0  0  0  0
   -6.0996    3.1730    1.6132 H   0  0  0  0  0  0  0  0  0  0  0  0
   -2.5423    5.5866   -0.6893 C   0  0  0  0  0  0  0  0  0  0  0  0
   -1.7119    5.5174   -1.4015 H   0  0  0  0  0  0  0  0  0  0  0  0
   -2.9194    6.6136   -0.7112 H   0  0  0  0  0  0  0  0  0  0  0  0
   -3.3594    4.9249   -0.9900 H   0  0  0  0  0  0  0  0  0  0  0  0
 27 12  1  0
 26 12  1  0
 28 12  1  0
 12 11  1  0
 37 36  1  0
 39 36  1  0
 38 36  1  0
 36 17  1  0
 11 24  1  0
 11 10  1  0
 11 25  1  0
 23  9  1  0
 10  9  1  0
 10  5  2  0
  9  8  2  0
 34 20  1  0
 16  6  1  0
 16 18  1  0
  5  6  1  0
  5  4  1  0
 33 20  1  0
  8 22  1  0
  8  7  1  0
  6  1  2  0
 14 13  2  0
 17  1  1  0
  1  2  1  0
  4  7  2  0
  4  3  1  0
 20 18  1  0
 20 35  1  0
  2  3  2  0
  2 21  1  0
  3 13  1  0
 18 29  1  0
 18 19  1  0
 13 15  1  0
 31 19  1  0
 19 30  1  0
 19 32  1  0
M  CHG  2  13   1  15  -1
M  END
>  <_TriposChargeType>  (45) 
GASTEIGER

>  <Activity>  (45) 
6.18

$$$$
2_2C
     RDKit          3D

 32 34  0  0  0  0  0  0  0  0999 V2000
   -1.3626    4.1529    0.7191 C   0  0  0  0  0  0  0  0  0  0  0  0
   -0.0513    4.3995    1.0994 C   0  0  0  0  0  0  0  0  0  0  0  0
    0.8615    3.3348    1.0893 C   0  0  0  0  0  0  0  0  0  0  0  0
    0.5415    2.0301    0.7224 C   0  0  0  0  0  0  0  0  0  0  0  0
   -0.7961    1.8082    0.3391 C   0  0  0  0  0  0  0  0  0  0  0  0
   -1.7332    2.8625    0.3397 C   0  0  0  0  0  0  0  0  0  0  0  0
    1.4469    1.0244    0.7272 N   0  0  0  0  0  0  0  0  0  0  0  0
    1.0728   -0.2245    0.3613 C   0  0  0  0  0  0  0  0  0  0  0  0
   -0.2253   -0.5109   -0.0371 C   0  0  0  0  0  0  0  0  0  0  0  0
   -1.1655    0.5139   -0.0434 C   0  0  0  0  0  0  0  0  0  0  0  0
    2.1251   -1.3175    0.3475 C   0  0  0  0  0  0  0  0  0  0  0  0
    2.8995   -1.3529   -0.9712 C   0  0  0  0  0  0  0  0  0  0  0  0
    4.0054   -0.3183   -0.7988 C   0  0  0  0  0  0  0  0  0  0  0  0
    2.2173    3.6137    1.4840 N   0  0  0  0  0  4  0  0  0  0  0  0
    2.4672    3.5794    2.6972 O   0  0  0  0  0  1  0  0  0  0  0  0
    3.0053    3.9537    0.5902 O   0  0  0  0  0  0  0  0  0  0  0  0
    4.3239   -0.2976    0.6946 C   0  0  0  0  0  0  0  0  0  0  0  0
    3.2404   -1.1303    1.3828 C   0  0  0  0  0  0  0  0  0  0  0  0
   -2.0955    4.9565    0.7154 H   0  0  0  0  0  0  0  0  0  0  0  0
    0.2578    5.3983    1.3976 H   0  0  0  0  0  0  0  0  0  0  0  0
   -2.7645    2.6791    0.0416 H   0  0  0  0  0  0  0  0  0  0  0  0
   -0.5086   -1.5135   -0.3414 H   0  0  0  0  0  0  0  0  0  0  0  0
   -2.1850    0.2942   -0.3515 H   0  0  0  0  0  0  0  0  0  0  0  0
    1.6250   -2.2771    0.5280 H   0  0  0  0  0  0  0  0  0  0  0  0
    2.2821   -1.1494   -1.8520 H   0  0  0  0  0  0  0  0  0  0  0  0
    3.3531   -2.3435   -1.1024 H   0  0  0  0  0  0  0  0  0  0  0  0
    3.6541    0.6699   -1.1181 H   0  0  0  0  0  0  0  0  0  0  0  0
    4.8859   -0.5610   -1.4019 H   0  0  0  0  0  0  0  0  0  0  0  0
    4.3276    0.7320    1.0689 H   0  0  0  0  0  0  0  0  0  0  0  0
    5.3154   -0.7179    0.8948 H   0  0  0  0  0  0  0  0  0  0  0  0
    2.9014   -0.6742    2.3188 H   0  0  0  0  0  0  0  0  0  0  0  0
    3.6640   -2.1108    1.6358 H   0  0  0  0  0  0  0  0  0  0  0  0
 25 12  1  0
 28 13  1  0
 27 13  1  0
 26 12  1  0
 12 13  1  0
 12 11  1  0
 13 17  1  0
 23 10  1  0
 22  9  1  0
 10  9  1  0
 10  5  2  0
  9  8  2  0
 21  6  1  0
  5  6  1  0
  5  4  1  0
  6  1  2  0
 11  8  1  0
 11 24  1  0
 11 18  1  0
  8  7  1  0
 16 14  2  0
 17 30  1  0
 17 29  1  0
 17 18  1  0
 19  1  1  0
  1  2  1  0
  4  7  2  0
  4  3  1  0
  3  2  2  0
  3 14  1  0
  2 20  1  0
 18 32  1  0
 18 31  1  0
 14 15  1  0
M  CHG  2  14   1  15  -1
M  END
>  <_TriposChargeType>  (46) 
GASTEIGER

>  <Activity>  (46) 
3.99

$$$$
2_3B
     RDKit          3D

 35 37  0  0  0  0  0  0  0  0999 V2000
   -1.3562    4.1420    0.7086 C   0  0  0  0  0  0  0  0  0  0  0  0
   -0.0378    4.3831    1.0828 C   0  0  0  0  0  0  0  0  0  0  0  0
    0.8897    3.3341    1.1208 C   0  0  0  0  0  0  0  0  0  0  0  0
    0.5262    2.0356    0.7190 C   0  0  0  0  0  0  0  0  0  0  0  0
   -0.8115    1.8049    0.3388 C   0  0  0  0  0  0  0  0  0  0  0  0
   -1.7445    2.8561    0.3418 C   0  0  0  0  0  0  0  0  0  0  0  0
    1.4451    1.0415    0.7306 N   0  0  0  0  0  0  0  0  0  0  0  0
    1.0748   -0.2066    0.3531 C   0  0  0  0  0  0  0  0  0  0  0  0
   -0.2237   -0.5078   -0.0370 C   0  0  0  0  0  0  0  0  0  0  0  0
   -1.1735    0.5079   -0.0416 C   0  0  0  0  0  0  0  0  0  0  0  0
    2.1400   -1.2858    0.3669 C   0  0  0  0  0  0  0  0  0  0  0  0
    2.6965   -1.4950    1.7846 C   0  0  0  0  0  0  0  0  0  0  0  0
    3.7913   -2.5601    1.8034 C   0  0  0  0  0  0  0  0  0  0  0  0
    2.2498    3.6335    1.4001 N   0  0  0  0  0  0  0  0  0  0  0  0
    2.3670    4.3098    2.1451 H   0  0  0  0  0  0  0  0  0  0  0  0
    2.7505    2.7570    1.5662 H   0  0  0  0  0  0  0  0  0  0  0  0
    4.9062   -2.2389    0.8122 C   0  0  0  0  0  0  0  0  0  0  0  0
    4.3626   -2.0237   -0.5973 C   0  0  0  0  0  0  0  0  0  0  0  0
    3.2695   -0.9572   -0.6229 C   0  0  0  0  0  0  0  0  0  0  0  0
   -2.0747    4.9571    0.6892 H   0  0  0  0  0  0  0  0  0  0  0  0
    0.2717    5.3934    1.3361 H   0  0  0  0  0  0  0  0  0  0  0  0
   -2.7760    2.6793    0.0458 H   0  0  0  0  0  0  0  0  0  0  0  0
   -0.5016   -1.5131   -0.3356 H   0  0  0  0  0  0  0  0  0  0  0  0
   -2.1923    0.2823   -0.3456 H   0  0  0  0  0  0  0  0  0  0  0  0
    1.6829   -2.2327    0.0470 H   0  0  0  0  0  0  0  0  0  0  0  0
    1.8894   -1.7913    2.4660 H   0  0  0  0  0  0  0  0  0  0  0  0
    3.1074   -0.5558    2.1778 H   0  0  0  0  0  0  0  0  0  0  0  0
    4.2085   -2.6413    2.8134 H   0  0  0  0  0  0  0  0  0  0  0  0
    3.3548   -3.5362    1.5587 H   0  0  0  0  0  0  0  0  0  0  0  0
    5.4364   -1.3363    1.1401 H   0  0  0  0  0  0  0  0  0  0  0  0
    5.6383   -3.0542    0.8043 H   0  0  0  0  0  0  0  0  0  0  0  0
    5.1794   -1.7298   -1.2662 H   0  0  0  0  0  0  0  0  0  0  0  0
    3.9594   -2.9687   -0.9816 H   0  0  0  0  0  0  0  0  0  0  0  0
    3.7168    0.0167   -0.3842 H   0  0  0  0  0  0  0  0  0  0  0  0
    2.8666   -0.8740   -1.6399 H   0  0  0  0  0  0  0  0  0  0  0  0
 35 19  1  0
 32 18  1  0
 33 18  1  0
 19 18  1  0
 19 34  1  0
 19 11  1  0
 18 17  1  0
 24 10  1  0
 23  9  1  0
 10  9  1  0
 10  5  2  0
  9  8  2  0
 22  6  1  0
 25 11  1  0
  5  6  1  0
  5  4  1  0
  6  1  2  0
  8 11  1  0
  8  7  1  0
 11 12  1  0
 20  1  1  0
  1  2  1  0
  4  7  2  0
  4  3  1  0
 31 17  1  0
 17 30  1  0
 17 13  1  0
  2  3  2  0
  2 21  1  0
  3 14  1  0
 14 16  1  0
 14 15  1  0
 29 13  1  0
 12 13  1  0
 12 27  1  0
 12 26  1  0
 13 28  1  0
M  END
>  <_TriposChargeType>  (47) 
GASTEIGER

>  <Activity>  (47) 
3.55

$$$$
3_7B
     RDKit          3D

 49 52  0  0  0  0  0  0  0  0999 V2000
   -1.3253    4.1730    0.7338 C   0  0  0  0  0  0  0  0  0  0  0  0
   -0.0091    4.3773    1.1075 C   0  0  0  0  0  0  0  0  0  0  0  0
    0.8782    3.3036    1.0898 C   0  0  0  0  0  0  0  0  0  0  0  0
    0.4862    2.0288    0.7062 C   0  0  0  0  0  0  0  0  0  0  0  0
   -0.8540    1.7892    0.3142 C   0  0  0  0  0  0  0  0  0  0  0  0
   -1.7403    2.8979    0.3445 C   0  0  0  0  0  0  0  0  0  0  0  0
    1.4283    1.0788    0.7347 N   0  0  0  0  0  0  0  0  0  0  0  0
    1.1135   -0.1856    0.3678 C   0  0  0  0  0  0  0  0  0  0  0  0
   -0.1854   -0.5278   -0.0110 C   0  0  0  0  0  0  0  0  0  0  0  0
   -1.2033    0.4558   -0.0705 C   0  0  0  0  0  0  0  0  0  0  0  0
   -0.4644   -1.9349   -0.3325 C   0  0  0  0  0  0  0  0  0  0  0  0
   -0.2954   -2.4373   -1.4284 O   0  0  0  0  0  0  0  0  0  0  0  0
   -0.9281   -2.5316    0.7915 O   0  0  0  0  0  0  0  0  0  0  0  0
    2.2290   -1.2115    0.4726 C   0  0  0  0  0  0  0  0  0  0  0  0
    2.2929   -1.8073    1.8928 C   0  0  0  0  0  0  0  0  0  0  0  0
    3.7575   -1.7425    2.3076 C   0  0  0  0  0  0  0  0  0  0  0  0
    4.2857   -0.5214    1.5769 C   0  0  0  0  0  0  0  0  0  0  0  0
    3.6377   -0.6416    0.2054 C   0  0  0  0  0  0  0  0  0  0  0  0
   -2.5999    0.0486   -0.5239 C   0  0  0  0  0  0  0  0  0  0  0  0
   -1.2380   -3.9144    0.6196 C   0  0  0  0  0  0  0  0  0  0  0  0
   -3.6814    0.1160    0.5626 C   0  0  0  0  0  0  0  0  0  0  0  0
   -4.9741    0.1720   -0.2380 C   0  0  0  0  0  0  0  0  0  0  0  0
   -4.6365    1.0930   -1.4013 C   0  0  0  0  0  0  0  0  0  0  0  0
   -3.1764    0.7939   -1.7444 C   0  0  0  0  0  0  0  0  0  0  0  0
   -2.0327    4.9983    0.7437 H   0  0  0  0  0  0  0  0  0  0  0  0
    0.3324    5.3622    1.4134 H   0  0  0  0  0  0  0  0  0  0  0  0
    1.9127    3.4659    1.3859 H   0  0  0  0  0  0  0  0  0  0  0  0
   -2.7827    2.7900    0.0664 H   0  0  0  0  0  0  0  0  0  0  0  0
    2.0684   -2.0062   -0.2646 H   0  0  0  0  0  0  0  0  0  0  0  0
    1.9217   -2.8376    1.9137 H   0  0  0  0  0  0  0  0  0  0  0  0
    1.6862   -1.2318    2.6033 H   0  0  0  0  0  0  0  0  0  0  0  0
    4.2836   -2.6433    1.9698 H   0  0  0  0  0  0  0  0  0  0  0  0
    3.8781   -1.6650    3.3919 H   0  0  0  0  0  0  0  0  0  0  0  0
    5.3779   -0.5118    1.5198 H   0  0  0  0  0  0  0  0  0  0  0  0
    3.9585    0.3968    2.0780 H   0  0  0  0  0  0  0  0  0  0  0  0
    4.2082   -1.3669   -0.3899 H   0  0  0  0  0  0  0  0  0  0  0  0
    3.6491    0.3036   -0.3461 H   0  0  0  0  0  0  0  0  0  0  0  0
   -2.5818   -1.0009   -0.8421 H   0  0  0  0  0  0  0  0  0  0  0  0
   -2.0279   -4.0398   -0.1277 H   0  0  0  0  0  0  0  0  0  0  0  0
   -1.6004   -4.3020    1.5756 H   0  0  0  0  0  0  0  0  0  0  0  0
   -0.3420   -4.4750    0.3352 H   0  0  0  0  0  0  0  0  0  0  0  0
   -3.5932    1.0034    1.1966 H   0  0  0  0  0  0  0  0  0  0  0  0
   -3.6492   -0.7568    1.2234 H   0  0  0  0  0  0  0  0  0  0  0  0
   -5.8150    0.5428    0.3550 H   0  0  0  0  0  0  0  0  0  0  0  0
   -5.2319   -0.8267   -0.6102 H   0  0  0  0  0  0  0  0  0  0  0  0
   -4.7400    2.1388   -1.0903 H   0  0  0  0  0  0  0  0  0  0  0  0
   -5.3005    0.9363   -2.2568 H   0  0  0  0  0  0  0  0  0  0  0  0
   -2.6382    1.7069   -2.0151 H   0  0  0  0  0  0  0  0  0  0  0  0
   -3.1274    0.1409   -2.6251 H   0  0  0  0  0  0  0  0  0  0  0  0
 49 24  1  0
 47 23  1  0
 48 24  1  0
 24 23  1  0
 24 19  1  0
 12 11  2  0
 23 46  1  0
 23 22  1  0
 38 19  1  0
 45 22  1  0
 19 10  1  0
 19 21  1  0
 36 18  1  0
 37 18  1  0
 11  9  1  0
 11 13  1  0
 29 14  1  0
 22 44  1  0
 22 21  1  0
 39 20  1  0
 10  9  1  0
 10  5  2  0
  9  8  2  0
 28  6  1  0
 18 14  1  0
 18 17  1  0
  5  6  1  0
  5  4  1  0
 41 20  1  0
  6  1  2  0
  8 14  1  0
  8  7  1  0
 14 15  1  0
 21 42  1  0
 21 43  1  0
 20 13  1  0
 20 40  1  0
  4  7  2  0
  4  3  1  0
  1 25  1  0
  1  2  1  0
  3  2  2  0
  3 27  1  0
  2 26  1  0
 34 17  1  0
 17 35  1  0
 17 16  1  0
 15 30  1  0
 15 16  1  0
 15 31  1  0
 32 16  1  0
 16 33  1  0
M  END
>  <_TriposChargeType>  (48) 
GASTEIGER

>  <Activity>  (48) 
6.22

$$$$
2_2A
     RDKit          3D

 28 29  0  0  0  0  0  0  0  0999 V2000
   -1.3633    4.1532    0.7168 C   0  0  0  0  0  0  0  0  0  0  0  0
   -0.0532    4.4001    1.1001 C   0  0  0  0  0  0  0  0  0  0  0  0
    0.8603    3.3356    1.0925 C   0  0  0  0  0  0  0  0  0  0  0  0
    0.5432    2.0301    0.7234 C   0  0  0  0  0  0  0  0  0  0  0  0
   -0.7946    1.8087    0.3390 C   0  0  0  0  0  0  0  0  0  0  0  0
   -1.7324    2.8626    0.3378 C   0  0  0  0  0  0  0  0  0  0  0  0
    1.4490    1.0230    0.7270 N   0  0  0  0  0  0  0  0  0  0  0  0
    1.0733   -0.2253    0.3555 C   0  0  0  0  0  0  0  0  0  0  0  0
   -0.2277   -0.5117   -0.0340 C   0  0  0  0  0  0  0  0  0  0  0  0
   -1.1659    0.5147   -0.0411 C   0  0  0  0  0  0  0  0  0  0  0  0
    2.1544   -1.2873    0.3890 C   0  0  0  0  0  0  0  0  0  0  0  0
    2.4274   -1.8591   -1.0032 C   0  0  0  0  0  0  0  0  0  0  0  0
    1.8258   -2.3980    1.3879 C   0  0  0  0  0  0  0  0  0  0  0  0
    2.2134    3.6169    1.4943 N   0  0  0  0  0  4  0  0  0  0  0  0
    2.9953    3.9950    0.6105 O   0  0  0  0  0  0  0  0  0  0  0  0
    2.4660    3.5473    2.7054 O   0  0  0  0  0  1  0  0  0  0  0  0
   -2.0966    4.9565    0.7112 H   0  0  0  0  0  0  0  0  0  0  0  0
    0.2547    5.3990    1.3992 H   0  0  0  0  0  0  0  0  0  0  0  0
   -2.7632    2.6784    0.0384 H   0  0  0  0  0  0  0  0  0  0  0  0
   -0.5186   -1.5144   -0.3297 H   0  0  0  0  0  0  0  0  0  0  0  0
   -2.1866    0.2952   -0.3455 H   0  0  0  0  0  0  0  0  0  0  0  0
    3.0821   -0.8082    0.7305 H   0  0  0  0  0  0  0  0  0  0  0  0
    1.5614   -2.3996   -1.4005 H   0  0  0  0  0  0  0  0  0  0  0  0
    3.2707   -2.5576   -0.9741 H   0  0  0  0  0  0  0  0  0  0  0  0
    2.6766   -1.0615   -1.7120 H   0  0  0  0  0  0  0  0  0  0  0  0
    1.6450   -1.9852    2.3867 H   0  0  0  0  0  0  0  0  0  0  0  0
    2.6576   -3.1066    1.4634 H   0  0  0  0  0  0  0  0  0  0  0  0
    0.9340   -2.9622    1.0938 H   0  0  0  0  0  0  0  0  0  0  0  0
 25 12  1  0
 23 12  1  0
 12 24  1  0
 12 11  1  0
 21 10  1  0
 20  9  1  0
 10  9  1  0
 10  5  2  0
  9  8  2  0
 19  6  1  0
  6  5  1  0
  6  1  2  0
  5  4  1  0
  8 11  1  0
  8  7  1  0
 11 22  1  0
 11 13  1  0
 15 14  2  0
 17  1  1  0
  1  2  1  0
  4  7  2  0
  4  3  1  0
  3  2  2  0
  3 14  1  0
 28 13  1  0
  2 18  1  0
 13 27  1  0
 13 26  1  0
 14 16  1  0
M  CHG  2  14   1  16  -1
M  END
>  <_TriposChargeType>  (49) 
GASTEIGER

>  <Activity>  (49) 
3.03

$$$$
3_12C
     RDKit          3D

 44 48  0  0  0  0  0  0  0  0999 V2000
   -1.3324    4.1757    0.7243 C   0  0  0  0  0  0  0  0  0  0  0  0
   -0.0156    4.3776    1.1042 C   0  0  0  0  0  0  0  0  0  0  0  0
    0.8747    3.3034    1.0921 C   0  0  0  0  0  0  0  0  0  0  0  0
    0.4854    2.0260    0.7119 C   0  0  0  0  0  0  0  0  0  0  0  0
   -0.8504    1.7987    0.3293 C   0  0  0  0  0  0  0  0  0  0  0  0
   -1.7474    2.9013    0.3387 C   0  0  0  0  0  0  0  0  0  0  0  0
    1.4208    1.0627    0.7269 N   0  0  0  0  0  0  0  0  0  0  0  0
    1.1061   -0.1999    0.3627 C   0  0  0  0  0  0  0  0  0  0  0  0
   -0.1840   -0.5254   -0.0266 C   0  0  0  0  0  0  0  0  0  0  0  0
   -1.1685    0.4709   -0.0466 C   0  0  0  0  0  0  0  0  0  0  0  0
   -2.5463    0.0803   -0.4474 C   0  0  0  0  0  0  0  0  0  0  0  0
   -3.5932    0.6000   -0.1145 O   0  0  0  0  0  0  0  0  0  0  0  0
   -2.5443   -0.9728   -1.2883 O   0  0  0  0  0  0  0  0  0  0  0  0
    2.2174   -1.2518    0.4009 C   0  0  2  0  0  0  0  0  0  0  0  0
    3.5773   -0.6385    0.8547 C   0  0  0  0  0  0  0  0  0  0  0  0
    4.6854   -1.7043    0.8900 C   0  0  2  0  0  0  0  0  0  0  0  0
    4.8547   -2.3037   -0.5138 C   0  0  0  0  0  0  0  0  0  0  0  0
    3.5365   -2.9455   -0.9709 C   0  0  2  0  0  0  0  0  0  0  0  0
    2.4328   -1.8736   -1.0070 C   0  0  0  0  0  0  0  0  0  0  0  0
    3.1377   -4.0501    0.0217 C   0  0  0  0  0  0  0  0  0  0  0  0
    2.9659   -3.4583    1.4305 C   0  0  1  0  0  0  0  0  0  0  0  0
    4.2873   -2.8138    1.8747 C   0  0  0  0  0  0  0  0  0  0  0  0
    1.8609   -2.3875    1.3997 C   0  0  0  0  0  0  0  0  0  0  0  0
   -2.0385    5.0022    0.7264 H   0  0  0  0  0  0  0  0  0  0  0  0
    0.3250    5.3637    1.4080 H   0  0  0  0  0  0  0  0  0  0  0  0
    1.9088    3.4680    1.3880 H   0  0  0  0  0  0  0  0  0  0  0  0
   -2.7873    2.7815    0.0433 H   0  0  0  0  0  0  0  0  0  0  0  0
   -0.4308   -1.5446   -0.3065 H   0  0  0  0  0  0  0  0  0  0  0  0
   -3.4939   -1.1140   -1.4883 H   0  0  0  0  0  0  0  0  0  0  0  0
    3.4801   -0.1885    1.8520 H   0  0  0  0  0  0  0  0  0  0  0  0
    3.8775    0.1703    0.1746 H   0  0  0  0  0  0  0  0  0  0  0  0
    5.6275   -1.2464    1.2116 H   0  0  0  0  0  0  0  0  0  0  0  0
    5.6547   -3.0542   -0.5071 H   0  0  0  0  0  0  0  0  0  0  0  0
    5.1572   -1.5225   -1.2219 H   0  0  0  0  0  0  0  0  0  0  0  0
    3.6637   -3.3762   -1.9705 H   0  0  0  0  0  0  0  0  0  0  0  0
    1.5085   -2.3331   -1.3793 H   0  0  0  0  0  0  0  0  0  0  0  0
    2.6996   -1.0906   -1.7295 H   0  0  0  0  0  0  0  0  0  0  0  0
    3.9051   -4.8338    0.0366 H   0  0  0  0  0  0  0  0  0  0  0  0
    2.2037   -4.5258   -0.3018 H   0  0  0  0  0  0  0  0  0  0  0  0
    2.6890   -4.2525    2.1329 H   0  0  0  0  0  0  0  0  0  0  0  0
    4.1819   -2.3995    2.8849 H   0  0  0  0  0  0  0  0  0  0  0  0
    5.0774   -3.5732    1.9231 H   0  0  0  0  0  0  0  0  0  0  0  0
    1.7169   -1.9742    2.4070 H   0  0  0  0  0  0  0  0  0  0  0  0
    0.9127   -2.8674    1.1261 H   0  0  0  0  0  0  0  0  0  0  0  0
 18 35  1  6
 37 19  1  0
 29 13  1  0
 36 19  1  0
 13 11  1  0
 34 17  1  0
 19 18  1  0
 19 14  1  0
 18 17  1  0
 18 20  1  0
 17 33  1  0
 17 16  1  0
 11 12  2  0
 11 10  1  0
 28  9  1  0
 39 20  1  0
 10  9  1  0
 10  5  2  0
  9  8  2  0
 20 38  1  0
 20 21  1  0
 27  6  1  0
 31 15  1  0
  5  6  1  0
  5  4  1  0
  6  1  2  0
 14  8  1  6
  8  7  1  0
 14 15  1  0
 14 23  1  0
  4  7  2  0
  4  3  1  0
  1 24  1  0
  1  2  1  0
 15 16  1  0
 15 30  1  0
 16 32  1  1
 16 22  1  0
  3  2  2  0
  3 26  1  0
  2 25  1  0
 44 23  1  0
 23 21  1  0
 23 43  1  0
 21 22  1  0
 21 40  1  1
 22 42  1  0
 22 41  1  0
M  END
>  <_TriposChargeType>  (50) 
GASTEIGER

>  <Activity>  (50) 
3.18

$$$$
1_3C
     RDKit          3D

 40 43  0  0  0  0  0  0  0  0999 V2000
   -1.3566    4.1443    0.7240 C   0  0  0  0  0  0  0  0  0  0  0  0
   -0.0395    4.3661    1.1035 C   0  0  0  0  0  0  0  0  0  0  0  0
    0.9264    3.3349    1.0971 C   0  0  0  0  0  0  0  0  0  0  0  0
    0.5142    2.0432    0.7136 C   0  0  0  0  0  0  0  0  0  0  0  0
   -0.8272    1.8039    0.3245 C   0  0  0  0  0  0  0  0  0  0  0  0
   -1.7467    2.8716    0.3334 C   0  0  0  0  0  0  0  0  0  0  0  0
    1.4254    1.0531    0.7335 N   0  0  0  0  0  0  0  0  0  0  0  0
    1.0867   -0.2046    0.3660 C   0  0  0  0  0  0  0  0  0  0  0  0
   -0.2094   -0.5107   -0.0249 C   0  0  0  0  0  0  0  0  0  0  0  0
   -1.1847    0.4892   -0.0538 C   0  0  0  0  0  0  0  0  0  0  0  0
    2.2620   -1.2386    0.4538 C   0  0  0  0  0  0  0  0  0  0  0  0
    3.6920   -0.7912    0.0262 C   0  0  0  0  0  0  0  0  0  0  0  0
    2.3923   -2.3269   -0.6533 C   0  0  0  0  0  0  0  0  0  0  0  0
    3.9194   -2.2304   -0.4737 C   0  0  0  0  0  0  0  0  0  0  0  0
   -2.0747    4.9598    0.7355 H   0  0  0  0  0  0  0  0  0  0  0  0
    0.2491    5.3677    1.4164 H   0  0  0  0  0  0  0  0  0  0  0  0
    2.4346    3.6218    1.5431 C   0  0  0  0  0  0  0  0  0  0  0  0
   -2.5804    0.1256   -0.4824 C   0  0  0  0  0  0  0  0  0  0  0  0
   -2.7825    2.7211    0.0411 H   0  0  0  0  0  0  0  0  0  0  0  0
   -0.4522   -1.5319   -0.3032 H   0  0  0  0  0  0  0  0  0  0  0  0
    2.2813   -1.6975    1.4553 H   0  0  0  0  0  0  0  0  0  0  0  0
    4.3493   -0.4653    0.8367 H   0  0  0  0  0  0  0  0  0  0  0  0
    3.7147   -0.0412   -0.7736 H   0  0  0  0  0  0  0  0  0  0  0  0
    2.0476   -2.0117   -1.6455 H   0  0  0  0  0  0  0  0  0  0  0  0
    1.9515   -3.2991   -0.4173 H   0  0  0  0  0  0  0  0  0  0  0  0
    4.3184   -2.9065    0.2912 H   0  0  0  0  0  0  0  0  0  0  0  0
    4.5139   -2.3303   -1.3849 H   0  0  0  0  0  0  0  0  0  0  0  0
   -2.6585   -0.9355   -0.7434 H   0  0  0  0  0  0  0  0  0  0  0  0
   -2.8694    0.7010   -1.3678 H   0  0  0  0  0  0  0  0  0  0  0  0
   -3.2899    0.3156    0.3293 H   0  0  0  0  0  0  0  0  0  0  0  0
    3.5878    3.2631    0.5557 C   0  0  0  0  0  0  0  0  0  0  0  0
    4.3630    4.4627    1.1319 C   0  0  0  0  0  0  0  0  0  0  0  0
    2.9954    5.0764    1.4839 C   0  0  0  0  0  0  0  0  0  0  0  0
    2.6128    3.1786    2.5365 H   0  0  0  0  0  0  0  0  0  0  0  0
    3.3285    3.3727   -0.5041 H   0  0  0  0  0  0  0  0  0  0  0  0
    4.0616    2.2899    0.7072 H   0  0  0  0  0  0  0  0  0  0  0  0
    4.9694    5.0257    0.4183 H   0  0  0  0  0  0  0  0  0  0  0  0
    4.9754    4.2150    2.0064 H   0  0  0  0  0  0  0  0  0  0  0  0
    2.5842    5.6986    0.6801 H   0  0  0  0  0  0  0  0  0  0  0  0
    2.9588    5.6375    2.4214 H   0  0  0  0  0  0  0  0  0  0  0  0
 24 13  1  0
 27 14  1  0
 29 18  1  0
 23 12  1  0
 28 18  1  0
 13 14  1  0
 13 25  1  0
 13 11  1  0
 35 31  1  0
 18 10  1  0
 18 30  1  0
 14 12  1  0
 14 26  1  0
 20  9  1  0
 10  9  1  0
 10  5  2  0
  9  8  2  0
 12 11  1  0
 12 22  1  0
 19  6  1  0
  5  6  1  0
  5  4  1  0
  6  1  2  0
  8 11  1  0
  8  7  1  0
 37 32  1  0
 11 21  1  0
 31 36  1  0
 31 32  1  0
 31 17  1  0
 39 33  1  0
  4  7  2  0
  4  3  1  0
  1 15  1  0
  1  2  1  0
  3  2  2  0
  3 17  1  0
  2 16  1  0
 32 33  1  0
 32 38  1  0
 33 17  1  0
 33 40  1  0
 17 34  1  0
M  END
>  <_TriposChargeType>  (51) 
GASTEIGER

>  <Activity>  (51) 
6.30

$$$$
2_2B
     RDKit          3D

 31 32  0  0  0  0  0  0  0  0999 V2000
   -1.3633    4.1555    0.7175 C   0  0  0  0  0  0  0  0  0  0  0  0
   -0.0527    4.4009    1.1004 C   0  0  0  0  0  0  0  0  0  0  0  0
    0.8590    3.3351    1.0921 C   0  0  0  0  0  0  0  0  0  0  0  0
    0.5395    2.0307    0.7224 C   0  0  0  0  0  0  0  0  0  0  0  0
   -0.7960    1.8109    0.3390 C   0  0  0  0  0  0  0  0  0  0  0  0
   -1.7336    2.8653    0.3381 C   0  0  0  0  0  0  0  0  0  0  0  0
    1.4430    1.0220    0.7249 N   0  0  0  0  0  0  0  0  0  0  0  0
    1.0801   -0.2347    0.3556 C   0  0  0  0  0  0  0  0  0  0  0  0
   -0.2239   -0.5116   -0.0329 C   0  0  0  0  0  0  0  0  0  0  0  0
   -1.1634    0.5168   -0.0402 C   0  0  0  0  0  0  0  0  0  0  0  0
    2.1896   -1.2903    0.3981 C   0  0  0  0  0  0  0  0  0  0  0  0
    2.7439   -1.3725    1.8350 C   0  0  0  0  0  0  0  0  0  0  0  0
    3.3218   -0.8593   -0.5559 C   0  0  0  0  0  0  0  0  0  0  0  0
    2.2131    3.6128    1.4929 N   0  0  0  0  0  4  0  0  0  0  0  0
    2.9937    3.9952    0.6098 O   0  0  0  0  0  0  0  0  0  0  0  0
    2.4682    3.5353    2.7031 O   0  0  0  0  0  1  0  0  0  0  0  0
   -2.0958    4.9594    0.7126 H   0  0  0  0  0  0  0  0  0  0  0  0
    0.2566    5.3993    1.3998 H   0  0  0  0  0  0  0  0  0  0  0  0
   -2.7645    2.6815    0.0388 H   0  0  0  0  0  0  0  0  0  0  0  0
   -0.5377   -1.5052   -0.3322 H   0  0  0  0  0  0  0  0  0  0  0  0
   -2.1839    0.2959   -0.3452 H   0  0  0  0  0  0  0  0  0  0  0  0
    1.7357   -2.7053   -0.0146 C   0  0  0  0  0  0  0  0  0  0  0  0
    3.5401   -2.1221    1.9101 H   0  0  0  0  0  0  0  0  0  0  0  0
    1.9568   -1.6480    2.5469 H   0  0  0  0  0  0  0  0  0  0  0  0
    3.1657   -0.4163    2.1662 H   0  0  0  0  0  0  0  0  0  0  0  0
    2.9562   -0.7632   -1.5851 H   0  0  0  0  0  0  0  0  0  0  0  0
    4.1381   -1.5909   -0.5579 H   0  0  0  0  0  0  0  0  0  0  0  0
    3.7523    0.1074   -0.2693 H   0  0  0  0  0  0  0  0  0  0  0  0
    1.3584   -2.7236   -1.0436 H   0  0  0  0  0  0  0  0  0  0  0  0
    0.9449   -3.0829    0.6440 H   0  0  0  0  0  0  0  0  0  0  0  0
    2.5680   -3.4172    0.0375 H   0  0  0  0  0  0  0  0  0  0  0  0
 26 13  1  0
 29 22  1  0
 27 13  1  0
 13 28  1  0
 13 11  1  0
 21 10  1  0
 20  9  1  0
 10  9  1  0
 10  5  2  0
  9  8  2  0
 22 31  1  0
 22 11  1  0
 22 30  1  0
 19  6  1  0
  6  5  1  0
  6  1  2  0
  5  4  1  0
  8 11  1  0
  8  7  1  0
 11 12  1  0
 15 14  2  0
 17  1  1  0
  1  2  1  0
  4  7  2  0
  4  3  1  0
  3  2  2  0
  3 14  1  0
  2 18  1  0
 14 16  1  0
 12 23  1  0
 12 25  1  0
 12 24  1  0
M  CHG  2  14   1  16  -1
M  END
>  <_TriposChargeType>  (52) 
GASTEIGER

>  <Activity>  (52) 
3.70

$$$$
3_14I
     RDKit          3D

 61 64  0  0  0  0  0  0  0  0999 V2000
   -1.3518    4.1554    0.7157 C   0  0  0  0  0  0  0  0  0  0  0  0
   -0.0398    4.3845    1.0984 C   0  0  0  0  0  0  0  0  0  0  0  0
    0.9023    3.3375    1.1060 C   0  0  0  0  0  0  0  0  0  0  0  0
    0.5189    2.0388    0.7228 C   0  0  0  0  0  0  0  0  0  0  0  0
   -0.8234    1.8005    0.3332 C   0  0  0  0  0  0  0  0  0  0  0  0
   -1.7399    2.8760    0.3371 C   0  0  0  0  0  0  0  0  0  0  0  0
    1.4274    1.0450    0.7278 N   0  0  0  0  0  0  0  0  0  0  0  0
    1.0837   -0.2068    0.3564 C   0  0  0  0  0  0  0  0  0  0  0  0
   -0.2064   -0.5212   -0.0343 C   0  0  0  0  0  0  0  0  0  0  0  0
   -1.1824    0.4813   -0.0462 C   0  0  0  0  0  0  0  0  0  0  0  0
   -2.5778    0.1064   -0.4973 C   0  0  0  0  0  0  0  0  0  0  0  0
   -2.8979    0.5673   -1.8990 C   0  0  0  0  0  0  0  0  0  0  0  0
   -3.7825    1.3699   -2.1705 O   0  0  0  0  0  0  0  0  0  0  0  0
   -2.0905   -0.0476   -2.8081 O   0  0  0  0  0  0  0  0  0  0  0  0
    2.1931   -1.2382    0.3866 C   0  0  0  0  0  0  0  0  0  0  0  0
    2.4992   -1.7931   -1.0141 C   0  0  0  0  0  0  0  0  0  0  0  0
    3.6302   -2.8192   -0.9724 C   0  0  0  0  0  0  0  0  0  0  0  0
    3.3380   -3.9396    0.0216 C   0  0  0  0  0  0  0  0  0  0  0  0
    3.0357   -3.3933    1.4141 C   0  0  0  0  0  0  0  0  0  0  0  0
    1.9013   -2.3706    1.3843 C   0  0  0  0  0  0  0  0  0  0  0  0
    2.3273    3.6823    1.5398 C   0  0  0  0  0  0  0  0  0  0  0  0
    3.3611    3.4966    0.4139 C   0  0  0  0  0  0  0  0  0  0  0  0
   -2.3067    0.3645   -4.1625 C   0  0  0  0  0  0  0  0  0  0  0  0
    4.7601    3.9109    0.8688 C   0  0  0  0  0  0  0  0  0  0  0  0
    5.1771    3.1818    2.1429 C   0  0  0  0  0  0  0  0  0  0  0  0
   -1.3059   -0.3603   -5.0410 C   0  0  0  0  0  0  0  0  0  0  0  0
    4.1600    3.3790    3.2633 C   0  0  0  0  0  0  0  0  0  0  0  0
    2.7555    2.9597    2.8303 C   0  0  0  0  0  0  0  0  0  0  0  0
   -2.0718    4.9696    0.7098 H   0  0  0  0  0  0  0  0  0  0  0  0
    0.2512    5.3909    1.3922 H   0  0  0  0  0  0  0  0  0  0  0  0
   -2.7770    2.7376    0.0409 H   0  0  0  0  0  0  0  0  0  0  0  0
   -0.4532   -1.5346   -0.3362 H   0  0  0  0  0  0  0  0  0  0  0  0
   -3.3203    0.5184    0.1961 H   0  0  0  0  0  0  0  0  0  0  0  0
   -2.7286   -0.9800   -0.4587 H   0  0  0  0  0  0  0  0  0  0  0  0
    3.1015   -0.7257    0.7367 H   0  0  0  0  0  0  0  0  0  0  0  0
    2.7756   -0.9751   -1.6910 H   0  0  0  0  0  0  0  0  0  0  0  0
    1.6078   -2.2665   -1.4450 H   0  0  0  0  0  0  0  0  0  0  0  0
    3.7796   -3.2429   -1.9719 H   0  0  0  0  0  0  0  0  0  0  0  0
    4.5662   -2.3192   -0.6944 H   0  0  0  0  0  0  0  0  0  0  0  0
    2.4826   -4.5278   -0.3330 H   0  0  0  0  0  0  0  0  0  0  0  0
    4.1952   -4.6205    0.0714 H   0  0  0  0  0  0  0  0  0  0  0  0
    2.7695   -4.2187    2.0840 H   0  0  0  0  0  0  0  0  0  0  0  0
    3.9380   -2.9255    1.8268 H   0  0  0  0  0  0  0  0  0  0  0  0
    0.9682   -2.8854    1.1222 H   0  0  0  0  0  0  0  0  0  0  0  0
    1.7577   -1.9580    2.3907 H   0  0  0  0  0  0  0  0  0  0  0  0
    2.3405    4.7558    1.7817 H   0  0  0  0  0  0  0  0  0  0  0  0
    3.0734    4.0926   -0.4611 H   0  0  0  0  0  0  0  0  0  0  0  0
    3.4016    2.4544    0.0791 H   0  0  0  0  0  0  0  0  0  0  0  0
   -2.1591    1.4469   -4.2494 H   0  0  0  0  0  0  0  0  0  0  0  0
   -3.3261    0.1043   -4.4684 H   0  0  0  0  0  0  0  0  0  0  0  0
    5.4826    3.7024    0.0716 H   0  0  0  0  0  0  0  0  0  0  0  0
    4.7817    4.9937    1.0434 H   0  0  0  0  0  0  0  0  0  0  0  0
    5.2848    2.1106    1.9319 H   0  0  0  0  0  0  0  0  0  0  0  0
    6.1585    3.5438    2.4692 H   0  0  0  0  0  0  0  0  0  0  0  0
   -0.2817   -0.1283   -4.7305 H   0  0  0  0  0  0  0  0  0  0  0  0
   -1.4302   -0.0770   -6.0899 H   0  0  0  0  0  0  0  0  0  0  0  0
   -1.4279   -1.4447   -4.9505 H   0  0  0  0  0  0  0  0  0  0  0  0
    4.4624    2.7983    4.1421 H   0  0  0  0  0  0  0  0  0  0  0  0
    4.1494    4.4333    3.5661 H   0  0  0  0  0  0  0  0  0  0  0  0
    2.7450    1.8722    2.6993 H   0  0  0  0  0  0  0  0  0  0  0  0
    2.0462    3.1820    3.6372 H   0  0  0  0  0  0  0  0  0  0  0  0
 56 26  1  0
 26 57  1  0
 26 55  1  0
 26 23  1  0
 50 23  1  0
 49 23  1  0
 23 14  1  0
 14 12  1  0
 13 12  2  0
 38 17  1  0
 12 11  1  0
 36 16  1  0
 37 16  1  0
 16 17  1  0
 16 15  1  0
 17 39  1  0
 17 18  1  0
 11 34  1  0
 11 10  1  0
 11 33  1  0
 47 22  1  0
 32  9  1  0
 40 18  1  0
 10  9  1  0
 10  5  2  0
  9  8  2  0
 18 41  1  0
 18 19  1  0
 31  6  1  0
 51 24  1  0
 48 22  1  0
  5  6  1  0
  5  4  1  0
  6  1  2  0
  8 15  1  0
  8  7  1  0
 15 35  1  0
 15 20  1  0
 22 24  1  0
 22 21  1  0
 29  1  1  0
  1  2  1  0
  4  7  2  0
  4  3  1  0
 24 52  1  0
 24 25  1  0
  2  3  2  0
  2 30  1  0
  3 21  1  0
 44 20  1  0
 20 19  1  0
 20 45  1  0
 19 43  1  0
 19 42  1  0
 21 46  1  0
 21 28  1  0
 53 25  1  0
 25 54  1  0
 25 27  1  0
 60 28  1  0
 28 27  1  0
 28 61  1  0
 27 59  1  0
 27 58  1  0
M  END
>  <_TriposChargeType>  (53) 
GASTEIGER

>  <Activity>  (53) 
6.78

$$$$
3_7E
     RDKit          3D

 47 51  0  0  0  0  0  0  0  0999 V2000
   -1.3530    4.1487    0.7200 C   0  0  0  0  0  0  0  0  0  0  0  0
   -0.0348    4.3760    1.0985 C   0  0  0  0  0  0  0  0  0  0  0  0
    0.8821    3.3206    1.0927 C   0  0  0  0  0  0  0  0  0  0  0  0
    0.5141    2.0357    0.7164 C   0  0  0  0  0  0  0  0  0  0  0  0
   -0.8176    1.8121    0.3351 C   0  0  0  0  0  0  0  0  0  0  0  0
   -1.7468    2.8684    0.3376 C   0  0  0  0  0  0  0  0  0  0  0  0
    1.4299    1.0501    0.7263 N   0  0  0  0  0  0  0  0  0  0  0  0
    1.0966   -0.2265    0.3672 C   0  0  0  0  0  0  0  0  0  0  0  0
   -0.2122   -0.5099   -0.0322 C   0  0  0  0  0  0  0  0  0  0  0  0
   -1.1695    0.5158   -0.0447 C   0  0  0  0  0  0  0  0  0  0  0  0
   -0.6787   -1.8253   -0.4895 C   0  0  0  0  0  0  0  0  0  0  0  0
   -0.3224   -2.3759   -1.5143 O   0  0  0  0  0  0  0  0  0  0  0  0
   -1.5741   -2.2881    0.4185 O   0  0  0  0  0  0  0  0  0  0  0  0
    2.2579   -1.2347    0.4382 C   0  0  2  0  0  0  0  0  0  0  0  0
    1.8831   -2.5732    1.1372 C   0  0  0  0  0  0  0  0  0  0  0  0
    3.0810   -3.5388    1.1826 C   0  0  2  0  0  0  0  0  0  0  0  0
    4.2193   -2.9043    1.9897 C   0  0  0  0  0  0  0  0  0  0  0  0
    4.6517   -1.5921    1.3260 C   0  0  2  0  0  0  0  0  0  0  0  0
    3.4507   -0.6342    1.2678 C   0  0  0  0  0  0  0  0  0  0  0  0
   -2.1118   -3.5707    0.0936 C   0  0  0  0  0  0  0  0  0  0  0  0
    5.1377   -1.8749   -0.1026 C   0  0  0  0  0  0  0  0  0  0  0  0
    4.0026   -2.5031   -0.9239 C   0  0  1  0  0  0  0  0  0  0  0  0
    3.5592   -3.8136   -0.2531 C   0  0  0  0  0  0  0  0  0  0  0  0
    2.8127   -1.5270   -0.9817 C   0  0  0  0  0  0  0  0  0  0  0  0
   -2.0710    4.9648    0.7217 H   0  0  0  0  0  0  0  0  0  0  0  0
    0.2859    5.3704    1.3982 H   0  0  0  0  0  0  0  0  0  0  0  0
    1.9121    3.5044    1.3893 H   0  0  0  0  0  0  0  0  0  0  0  0
   -2.7794    2.6980    0.0415 H   0  0  0  0  0  0  0  0  0  0  0  0
   -2.1879    0.2973   -0.3594 H   0  0  0  0  0  0  0  0  0  0  0  0
    1.0773   -3.0942    0.6171 H   0  0  0  0  0  0  0  0  0  0  0  0
    1.5191   -2.3789    2.1547 H   0  0  0  0  0  0  0  0  0  0  0  0
    2.7762   -4.4794    1.6552 H   0  0  0  0  0  0  0  0  0  0  0  0
    5.0696   -3.5947    2.0482 H   0  0  0  0  0  0  0  0  0  0  0  0
    3.8909   -2.7155    3.0191 H   0  0  0  0  0  0  0  0  0  0  0  0
    5.4609   -1.1348    1.9065 H   0  0  0  0  0  0  0  0  0  0  0  0
    3.7918    0.3123    0.8263 H   0  0  0  0  0  0  0  0  0  0  0  0
    3.1201   -0.4021    2.2896 H   0  0  0  0  0  0  0  0  0  0  0  0
   -1.3152   -4.3198    0.0451 H   0  0  0  0  0  0  0  0  0  0  0  0
   -2.8084   -3.8569    0.8863 H   0  0  0  0  0  0  0  0  0  0  0  0
   -2.6611   -3.5268   -0.8521 H   0  0  0  0  0  0  0  0  0  0  0  0
    6.0022   -2.5497   -0.0786 H   0  0  0  0  0  0  0  0  0  0  0  0
    5.4738   -0.9446   -0.5767 H   0  0  0  0  0  0  0  0  0  0  0  0
    4.3560   -2.7103   -1.9403 H   0  0  0  0  0  0  0  0  0  0  0  0
    2.7540   -4.2789   -0.8349 H   0  0  0  0  0  0  0  0  0  0  0  0
    4.3933   -4.5261   -0.2381 H   0  0  0  0  0  0  0  0  0  0  0  0
    2.0423   -1.9546   -1.6291 H   0  0  0  0  0  0  0  0  0  0  0  0
    3.1275   -0.5919   -1.4647 H   0  0  0  0  0  0  0  0  0  0  0  0
 22 43  1  6
 46 24  1  0
 12 11  2  0
 47 24  1  0
 24 22  1  0
 24 14  1  0
 22 23  1  0
 22 21  1  0
 40 20  1  0
 44 23  1  0
 42 21  1  0
 11  9  1  0
 11 13  1  0
 29 10  1  0
 23 45  1  0
 23 16  1  0
 21 41  1  0
 21 18  1  0
 10  9  1  0
 10  5  2  0
  9  8  2  0
 28  6  1  0
 38 20  1  0
 20 13  1  0
 20 39  1  0
  5  6  1  0
  5  4  1  0
  6  1  2  0
 14  8  1  6
  8  7  1  0
 14 15  1  0
 14 19  1  0
 30 15  1  0
  4  7  2  0
  4  3  1  0
  1 25  1  0
  1  2  1  0
 36 19  1  0
  3  2  2  0
  3 27  1  0
  2 26  1  0
 15 16  1  0
 15 31  1  0
 16 32  1  1
 16 17  1  0
 19 18  1  0
 19 37  1  0
 18 35  1  1
 18 17  1  0
 17 33  1  0
 17 34  1  0
M  END
>  <_TriposChargeType>  (54) 
GASTEIGER

>  <Activity>  (54) 
3.80

$$$$
1_2F
     RDKit          3D

 27 29  0  0  0  0  0  0  0  0999 V2000
   -1.3400    4.1603    0.7235 C   0  0  0  0  0  0  0  0  0  0  0  0
   -0.0226    4.3744    1.1013 C   0  0  0  0  0  0  0  0  0  0  0  0
    0.8801    3.3090    1.0919 C   0  0  0  0  0  0  0  0  0  0  0  0
    0.5026    2.0276    0.7132 C   0  0  0  0  0  0  0  0  0  0  0  0
   -0.8357    1.7991    0.3268 C   0  0  0  0  0  0  0  0  0  0  0  0
   -1.7454    2.8828    0.3389 C   0  0  0  0  0  0  0  0  0  0  0  0
    1.4344    1.0608    0.7331 N   0  0  0  0  0  0  0  0  0  0  0  0
    1.1006   -0.1985    0.3646 C   0  0  0  0  0  0  0  0  0  0  0  0
   -0.1997   -0.5086   -0.0247 C   0  0  0  0  0  0  0  0  0  0  0  0
   -1.1856    0.4841   -0.0516 C   0  0  0  0  0  0  0  0  0  0  0  0
    2.1677   -1.2669    0.4062 C   0  0  0  0  0  0  0  0  0  0  0  0
    3.5387   -0.9851   -0.1658 C   0  0  0  0  0  0  0  0  0  0  0  0
    2.6217   -1.9386   -0.8704 C   0  0  0  0  0  0  0  0  0  0  0  0
   -2.0514    4.9818    0.7272 H   0  0  0  0  0  0  0  0  0  0  0  0
    0.3093    5.3639    1.4038 H   0  0  0  0  0  0  0  0  0  0  0  0
    1.9120    3.4821    1.3893 H   0  0  0  0  0  0  0  0  0  0  0  0
   -2.7828    2.7401    0.0473 H   0  0  0  0  0  0  0  0  0  0  0  0
   -2.5789    0.1165   -0.4808 C   0  0  0  0  0  0  0  0  0  0  0  0
   -0.4358   -1.5304   -0.3080 H   0  0  0  0  0  0  0  0  0  0  0  0
    2.1531   -1.8853    1.3004 H   0  0  0  0  0  0  0  0  0  0  0  0
    4.3951   -1.3881    0.3615 H   0  0  0  0  0  0  0  0  0  0  0  0
    3.7160   -0.0153   -0.6183 H   0  0  0  0  0  0  0  0  0  0  0  0
    2.1949   -1.6159   -1.8134 H   0  0  0  0  0  0  0  0  0  0  0  0
    2.8591   -2.9951   -0.8290 H   0  0  0  0  0  0  0  0  0  0  0  0
   -3.2903    0.3103    0.3284 H   0  0  0  0  0  0  0  0  0  0  0  0
   -2.6547   -0.9459   -0.7362 H   0  0  0  0  0  0  0  0  0  0  0  0
   -2.8671    0.6879   -1.3690 H   0  0  0  0  0  0  0  0  0  0  0  0
 23 13  1  0
 27 18  1  0
 13 24  1  0
 13 12  1  0
 13 11  1  0
 26 18  1  0
 22 12  1  0
 18 10  1  0
 18 25  1  0
 19  9  1  0
 12 21  1  0
 12 11  1  0
 10  9  1  0
 10  5  2  0
  9  8  2  0
 17  6  1  0
  5  6  1  0
  5  4  1  0
  6  1  2  0
  8 11  1  0
  8  7  1  0
 11 20  1  0
  4  7  2  0
  4  3  1  0
  1 14  1  0
  1  2  1  0
  3  2  2  0
  3 16  1  0
  2 15  1  0
M  END
>  <_TriposChargeType>  (55) 
GASTEIGER

>  <Activity>  (55) 
4.08

$$$$
3_14D
     RDKit          3D

 58 61  0  0  0  0  0  0  0  0999 V2000
   -1.3530    4.1543    0.7287 C   0  0  0  0  0  0  0  0  0  0  0  0
   -0.0385    4.3829    1.1042 C   0  0  0  0  0  0  0  0  0  0  0  0
    0.9029    3.3368    1.0965 C   0  0  0  0  0  0  0  0  0  0  0  0
    0.5174    2.0393    0.7122 C   0  0  0  0  0  0  0  0  0  0  0  0
   -0.8241    1.8020    0.3240 C   0  0  0  0  0  0  0  0  0  0  0  0
   -1.7420    2.8770    0.3414 C   0  0  0  0  0  0  0  0  0  0  0  0
    1.4285    1.0472    0.7218 N   0  0  0  0  0  0  0  0  0  0  0  0
    1.0827   -0.2093    0.3748 C   0  0  0  0  0  0  0  0  0  0  0  0
   -0.2069   -0.5231   -0.0228 C   0  0  0  0  0  0  0  0  0  0  0  0
   -1.1783    0.4839   -0.0640 C   0  0  0  0  0  0  0  0  0  0  0  0
   -2.5783    0.1063   -0.5022 C   0  0  0  0  0  0  0  0  0  0  0  0
   -3.5454   -0.0770    0.6474 C   0  0  0  0  0  0  0  0  0  0  0  0
   -3.2534   -0.4459    1.7763 O   0  0  0  0  0  0  0  0  0  0  0  0
   -4.8163    0.1844    0.2202 O   0  0  0  0  0  0  0  0  0  0  0  0
    2.1521   -1.2890    0.4329 C   0  0  0  0  0  0  0  0  0  0  0  0
    2.6726   -1.5222    1.8621 C   0  0  0  0  0  0  0  0  0  0  0  0
    3.7180   -0.5073    2.3232 C   0  0  0  0  0  0  0  0  0  0  0  0
    4.8517   -0.3598    1.3156 C   0  0  0  0  0  0  0  0  0  0  0  0
    4.3371   -0.0247   -0.0791 C   0  0  0  0  0  0  0  0  0  0  0  0
    3.2975   -1.0351   -0.5625 C   0  0  0  0  0  0  0  0  0  0  0  0
    2.3435    3.6197    1.5217 C   0  0  0  0  0  0  0  0  0  0  0  0
    2.4310    4.0148    3.0067 C   0  0  0  0  0  0  0  0  0  0  0  0
   -5.8122    0.0190    1.2309 C   0  0  0  0  0  0  0  0  0  0  0  0
    3.8771    4.2709    3.4287 C   0  0  0  0  0  0  0  0  0  0  0  0
    4.5499    5.3093    2.5353 C   0  0  0  0  0  0  0  0  0  0  0  0
    4.4619    4.9280    1.0601 C   0  0  0  0  0  0  0  0  0  0  0  0
    3.0176    4.6774    0.6284 C   0  0  0  0  0  0  0  0  0  0  0  0
   -2.0742    4.9672    0.7401 H   0  0  0  0  0  0  0  0  0  0  0  0
    0.2523    5.3851    1.4102 H   0  0  0  0  0  0  0  0  0  0  0  0
   -2.7813    2.7364    0.0580 H   0  0  0  0  0  0  0  0  0  0  0  0
   -0.4598   -1.5443   -0.2922 H   0  0  0  0  0  0  0  0  0  0  0  0
   -2.5614   -0.8339   -1.0672 H   0  0  0  0  0  0  0  0  0  0  0  0
   -2.9562    0.8676   -1.1945 H   0  0  0  0  0  0  0  0  0  0  0  0
    1.6721   -2.2274    0.1208 H   0  0  0  0  0  0  0  0  0  0  0  0
    3.1354   -2.5177    1.8971 H   0  0  0  0  0  0  0  0  0  0  0  0
    1.8416   -1.5431    2.5779 H   0  0  0  0  0  0  0  0  0  0  0  0
    3.2495    0.4667    2.4987 H   0  0  0  0  0  0  0  0  0  0  0  0
    4.1298   -0.8265    3.2879 H   0  0  0  0  0  0  0  0  0  0  0  0
    5.5423    0.4224    1.6508 H   0  0  0  0  0  0  0  0  0  0  0  0
    5.4254   -1.2941    1.2758 H   0  0  0  0  0  0  0  0  0  0  0  0
    3.9150    0.9855   -0.0854 H   0  0  0  0  0  0  0  0  0  0  0  0
    5.1787   -0.0088   -0.7817 H   0  0  0  0  0  0  0  0  0  0  0  0
    2.9018   -0.7169   -1.5348 H   0  0  0  0  0  0  0  0  0  0  0  0
    3.8143   -1.9886   -0.7365 H   0  0  0  0  0  0  0  0  0  0  0  0
    2.9400    2.7069    1.4095 H   0  0  0  0  0  0  0  0  0  0  0  0
    2.0068    3.2198    3.6325 H   0  0  0  0  0  0  0  0  0  0  0  0
    1.8394    4.9177    3.2033 H   0  0  0  0  0  0  0  0  0  0  0  0
   -5.8395   -1.0196    1.5752 H   0  0  0  0  0  0  0  0  0  0  0  0
   -6.7835    0.2638    0.7923 H   0  0  0  0  0  0  0  0  0  0  0  0
   -5.6279    0.7014    2.0666 H   0  0  0  0  0  0  0  0  0  0  0  0
    3.9019    4.6096    4.4706 H   0  0  0  0  0  0  0  0  0  0  0  0
    4.4414    3.3310    3.3851 H   0  0  0  0  0  0  0  0  0  0  0  0
    4.0728    6.2852    2.6882 H   0  0  0  0  0  0  0  0  0  0  0  0
    5.6009    5.4188    2.8252 H   0  0  0  0  0  0  0  0  0  0  0  0
    4.8963    5.7255    0.4468 H   0  0  0  0  0  0  0  0  0  0  0  0
    5.0588    4.0253    0.8796 H   0  0  0  0  0  0  0  0  0  0  0  0
    2.4701    5.6271    0.6657 H   0  0  0  0  0  0  0  0  0  0  0  0
    3.0036    4.3483   -0.4181 H   0  0  0  0  0  0  0  0  0  0  0  0
 43 20  1  0
 33 11  1  0
 32 11  1  0
 42 19  1  0
 44 20  1  0
 20 19  1  0
 20 15  1  0
 11 10  1  0
 11 12  1  0
 58 27  1  0
 31  9  1  0
 41 19  1  0
 19 18  1  0
 10  9  1  0
 10  5  2  0
  9  8  2  0
 30  6  1  0
 34 15  1  0
 14 12  1  0
 14 23  1  0
  5  6  1  0
  5  4  1  0
  6  1  2  0
  8 15  1  0
  8  7  1  0
 15 16  1  0
 55 26  1  0
 27 57  1  0
 27 26  1  0
 27 21  1  0
 12 13  2  0
  4  7  2  0
  4  3  1  0
  1 28  1  0
  1  2  1  0
 49 23  1  0
 56 26  1  0
 26 25  1  0
  3  2  2  0
  3 21  1  0
  2 29  1  0
 23 48  1  0
 23 50  1  0
 40 18  1  0
 18 39  1  0
 18 17  1  0
 45 21  1  0
 21 22  1  0
 16 35  1  0
 16 17  1  0
 16 36  1  0
 17 37  1  0
 17 38  1  0
 25 53  1  0
 25 54  1  0
 25 24  1  0
 22 47  1  0
 22 24  1  0
 22 46  1  0
 52 24  1  0
 24 51  1  0
M  END
>  <_TriposChargeType>  (56) 
GASTEIGER

>  <Activity>  (56) 
3.39

$$$$
3_11E
     RDKit          3D

 47 51  0  0  0  0  0  0  0  0999 V2000
   -1.3428    4.1692    0.7428 C   0  0  0  0  0  0  0  0  0  0  0  0
   -0.0209    4.3780    1.1051 C   0  0  0  0  0  0  0  0  0  0  0  0
    0.8778    3.3098    1.0807 C   0  0  0  0  0  0  0  0  0  0  0  0
    0.4934    2.0314    0.6981 C   0  0  0  0  0  0  0  0  0  0  0  0
   -0.8389    1.8090    0.3120 C   0  0  0  0  0  0  0  0  0  0  0  0
   -1.7525    2.8955    0.3521 C   0  0  0  0  0  0  0  0  0  0  0  0
    1.4198    1.0580    0.7241 N   0  0  0  0  0  0  0  0  0  0  0  0
    1.0952   -0.2148    0.3847 C   0  0  0  0  0  0  0  0  0  0  0  0
   -0.1914   -0.5308   -0.0142 C   0  0  0  0  0  0  0  0  0  0  0  0
   -1.1509    0.4857   -0.0684 C   0  0  0  0  0  0  0  0  0  0  0  0
   -2.4943    0.0729   -0.5209 C   0  0  0  0  0  0  0  0  0  0  0  0
   -3.0861   -0.8958   -0.0749 O   0  0  0  0  0  0  0  0  0  0  0  0
   -2.8924    0.8645   -1.5458 O   0  0  0  0  0  0  0  0  0  0  0  0
    2.2261   -1.2410    0.4738 C   0  0  2  0  0  0  0  0  0  0  0  0
    3.3930   -0.8039   -0.4571 C   0  0  0  0  0  0  0  0  0  0  0  0
    4.5855   -1.7692   -0.3382 C   0  0  2  0  0  0  0  0  0  0  0  0
    4.1384   -3.1823   -0.7399 C   0  0  0  0  0  0  0  0  0  0  0  0
    3.0083   -3.6561    0.1859 C   0  0  2  0  0  0  0  0  0  0  0  0
    1.8187   -2.6875    0.0694 C   0  0  0  0  0  0  0  0  0  0  0  0
   -4.1546    0.4963   -2.1033 C   0  0  0  0  0  0  0  0  0  0  0  0
    5.0791   -1.7869    1.1178 C   0  0  0  0  0  0  0  0  0  0  0  0
    3.9523   -2.2588    2.0513 C   0  0  2  0  0  0  0  0  0  0  0  0
    3.5084   -3.6697    1.6379 C   0  0  0  0  0  0  0  0  0  0  0  0
    2.7594   -1.2938    1.9338 C   0  0  0  0  0  0  0  0  0  0  0  0
   -2.0543    4.9907    0.7647 H   0  0  0  0  0  0  0  0  0  0  0  0
    0.3161    5.3644    1.4126 H   0  0  0  0  0  0  0  0  0  0  0  0
    1.9117    3.4780    1.3751 H   0  0  0  0  0  0  0  0  0  0  0  0
   -2.7969    2.7567    0.0822 H   0  0  0  0  0  0  0  0  0  0  0  0
   -0.4759   -1.5405   -0.2903 H   0  0  0  0  0  0  0  0  0  0  0  0
    3.7327    0.2101   -0.2075 H   0  0  0  0  0  0  0  0  0  0  0  0
    3.0498   -0.7650   -1.4997 H   0  0  0  0  0  0  0  0  0  0  0  0
    5.3949   -1.4371   -0.9980 H   0  0  0  0  0  0  0  0  0  0  0  0
    4.9868   -3.8751   -0.6807 H   0  0  0  0  0  0  0  0  0  0  0  0
    3.7967   -3.1859   -1.7822 H   0  0  0  0  0  0  0  0  0  0  0  0
    2.6923   -4.6644   -0.1045 H   0  0  0  0  0  0  0  0  0  0  0  0
    1.0027   -3.0487    0.7094 H   0  0  0  0  0  0  0  0  0  0  0  0
    1.4450   -2.7055   -0.9631 H   0  0  0  0  0  0  0  0  0  0  0  0
   -4.9421    0.5608   -1.3458 H   0  0  0  0  0  0  0  0  0  0  0  0
   -4.1061   -0.5112   -2.5281 H   0  0  0  0  0  0  0  0  0  0  0  0
   -4.3885    1.2004   -2.9065 H   0  0  0  0  0  0  0  0  0  0  0  0
    5.4153   -0.7852    1.4122 H   0  0  0  0  0  0  0  0  0  0  0  0
    5.9455   -2.4532    1.2108 H   0  0  0  0  0  0  0  0  0  0  0  0
    4.3127   -2.2742    3.0860 H   0  0  0  0  0  0  0  0  0  0  0  0
    2.7137   -4.0240    2.3058 H   0  0  0  0  0  0  0  0  0  0  0  0
    4.3456   -4.3712    1.7395 H   0  0  0  0  0  0  0  0  0  0  0  0
    1.9590   -1.6087    2.6168 H   0  0  0  0  0  0  0  0  0  0  0  0
    3.0758   -0.2974    2.2699 H   0  0  0  0  0  0  0  0  0  0  0  0
 40 20  1  0
 39 20  1  0
 20 13  1  0
 20 38  1  0
 34 17  1  0
 13 11  1  0
 31 15  1  0
 16 32  1  6
 37 19  1  0
 17 33  1  0
 17 16  1  0
 17 18  1  0
 11 12  2  0
 11 10  1  0
 15 16  1  0
 15 30  1  0
 15 14  1  0
 16 21  1  0
 29  9  1  0
 18 35  1  6
 10  9  1  0
 10  5  2  0
  9  8  2  0
 19 18  1  0
 19 14  1  0
 19 36  1  0
 28  6  1  0
 18 23  1  0
  5  6  1  0
  5  4  1  0
  6  1  2  0
 14  8  1  1
  8  7  1  0
 14 24  1  0
  4  7  2  0
  4  3  1  0
  1 25  1  0
  1  2  1  0
  3  2  2  0
  3 27  1  0
  2 26  1  0
 21 42  1  0
 21 41  1  0
 21 22  1  0
 23 45  1  0
 23 22  1  0
 23 44  1  0
 24 22  1  0
 24 47  1  0
 24 46  1  0
 22 43  1  1
M  END
>  <_TriposChargeType>  (57) 
GASTEIGER

>  <Activity>  (57) 
4.69

$$$$
2_6B
     RDKit          3D

 41 42  0  0  0  0  0  0  0  0999 V2000
   -1.3411    4.1871    0.7157 C   0  0  0  0  0  0  0  0  0  0  0  0
   -0.0348    4.4078    1.1052 C   0  0  0  0  0  0  0  0  0  0  0  0
    0.8496    3.3211    1.0954 C   0  0  0  0  0  0  0  0  0  0  0  0
    0.5140    2.0216    0.7233 C   0  0  0  0  0  0  0  0  0  0  0  0
   -0.8257    1.7906    0.3375 C   0  0  0  0  0  0  0  0  0  0  0  0
   -1.7237    2.8946    0.3377 C   0  0  0  0  0  0  0  0  0  0  0  0
    1.4387    1.0397    0.7297 N   0  0  0  0  0  0  0  0  0  0  0  0
    1.0968   -0.2085    0.3487 C   0  0  0  0  0  0  0  0  0  0  0  0
   -0.1947   -0.5258   -0.0411 C   0  0  0  0  0  0  0  0  0  0  0  0
   -1.1904    0.4627   -0.0352 C   0  0  0  0  0  0  0  0  0  0  0  0
    2.1835   -1.2657    0.3569 C   0  0  0  0  0  0  0  0  0  0  0  0
    2.7404   -1.4598    1.7682 C   0  0  0  0  0  0  0  0  0  0  0  0
    3.2999   -0.9020   -0.6231 C   0  0  0  0  0  0  0  0  0  0  0  0
    2.2079    3.5808    1.4986 N   0  0  0  0  0  4  0  0  0  0  0  0
    2.9857    3.9856    0.6230 O   0  0  0  0  0  0  0  0  0  0  0  0
    2.4656    3.4758    2.7060 O   0  0  0  0  0  1  0  0  0  0  0  0
   -2.3349    5.1213    0.6551 O   0  0  0  0  0  0  0  0  0  0  0  0
    0.3242    5.3849    1.4105 H   0  0  0  0  0  0  0  0  0  0  0  0
   -2.7584    2.7650    0.0273 H   0  0  0  0  0  0  0  0  0  0  0  0
   -0.4153   -1.5419   -0.3514 H   0  0  0  0  0  0  0  0  0  0  0  0
   -2.6135    0.1014   -0.4629 C   0  0  0  0  0  0  0  0  0  0  0  0
    1.7561   -2.2237    0.0341 H   0  0  0  0  0  0  0  0  0  0  0  0
    3.2208   -0.5496    2.1446 H   0  0  0  0  0  0  0  0  0  0  0  0
    3.4857   -2.2622    1.7823 H   0  0  0  0  0  0  0  0  0  0  0  0
    1.9430   -1.7294    2.4698 H   0  0  0  0  0  0  0  0  0  0  0  0
    3.8006    0.0311   -0.3409 H   0  0  0  0  0  0  0  0  0  0  0  0
    2.9042   -0.7735   -1.6368 H   0  0  0  0  0  0  0  0  0  0  0  0
    4.0577   -1.6921   -0.6560 H   0  0  0  0  0  0  0  0  0  0  0  0
   -3.0582   -1.3155   -0.0716 C   0  0  0  0  0  0  0  0  0  0  0  0
   -2.7800    0.3060   -1.9708 C   0  0  0  0  0  0  0  0  0  0  0  0
   -3.3155    0.7610    0.0586 H   0  0  0  0  0  0  0  0  0  0  0  0
   -4.1301   -1.4419   -0.2615 H   0  0  0  0  0  0  0  0  0  0  0  0
   -2.8840   -1.5031    0.9936 H   0  0  0  0  0  0  0  0  0  0  0  0
   -2.5375   -2.0885   -0.6463 H   0  0  0  0  0  0  0  0  0  0  0  0
   -2.5468    1.3359   -2.2621 H   0  0  0  0  0  0  0  0  0  0  0  0
   -3.8103    0.0985   -2.2792 H   0  0  0  0  0  0  0  0  0  0  0  0
   -2.1180   -0.3567   -2.5397 H   0  0  0  0  0  0  0  0  0  0  0  0
   -1.9974    6.4533    1.0270 C   0  0  0  0  0  0  0  0  0  0  0  0
   -2.8968    7.0676    0.9223 H   0  0  0  0  0  0  0  0  0  0  0  0
   -1.2315    6.8656    0.3620 H   0  0  0  0  0  0  0  0  0  0  0  0
   -1.6798    6.5012    2.0738 H   0  0  0  0  0  0  0  0  0  0  0  0
 37 30  1  0
 36 30  1  0
 35 30  1  0
 30 21  1  0
 27 13  1  0
 28 13  1  0
 34 29  1  0
 13 26  1  0
 13 11  1  0
 21 29  1  0
 21 10  1  0
 21 31  1  0
 20  9  1  0
 32 29  1  0
 29 33  1  0
  9 10  1  0
  9  8  2  0
 10  5  2  0
 19  6  1  0
 22 11  1  0
  5  6  1  0
  5  4  1  0
  6  1  2  0
  8 11  1  0
  8  7  1  0
 11 12  1  0
 40 38  1  0
 15 14  2  0
 17  1  1  0
 17 38  1  0
  1  2  1  0
  4  7  2  0
  4  3  1  0
 39 38  1  0
 38 41  1  0
  3  2  2  0
  3 14  1  0
  2 18  1  0
 14 16  1  0
 12 24  1  0
 12 23  1  0
 12 25  1  0
M  CHG  2  14   1  16  -1
M  END
>  <_TriposChargeType>  (58) 
GASTEIGER

>  <Activity>  (58) 
6.04

$$$$
3_11C
     RDKit          3D

 39 41  0  0  0  0  0  0  0  0999 V2000
   -1.3356    4.1717    0.7239 C   0  0  0  0  0  0  0  0  0  0  0  0
   -0.0184    4.3778    1.1029 C   0  0  0  0  0  0  0  0  0  0  0  0
    0.8766    3.3069    1.0922 C   0  0  0  0  0  0  0  0  0  0  0  0
    0.4916    2.0277    0.7134 C   0  0  0  0  0  0  0  0  0  0  0  0
   -0.8446    1.7997    0.3309 C   0  0  0  0  0  0  0  0  0  0  0  0
   -1.7470    2.8963    0.3392 C   0  0  0  0  0  0  0  0  0  0  0  0
    1.4257    1.0623    0.7279 N   0  0  0  0  0  0  0  0  0  0  0  0
    1.0944   -0.1966    0.3629 C   0  0  0  0  0  0  0  0  0  0  0  0
   -0.1896   -0.5289   -0.0285 C   0  0  0  0  0  0  0  0  0  0  0  0
   -1.1645    0.4741   -0.0479 C   0  0  0  0  0  0  0  0  0  0  0  0
   -2.5420    0.0946   -0.4482 C   0  0  0  0  0  0  0  0  0  0  0  0
   -3.5601    0.4898    0.0926 O   0  0  0  0  0  0  0  0  0  0  0  0
   -2.4776   -0.7422   -1.5163 O   0  0  0  0  0  0  0  0  0  0  0  0
    2.1854   -1.2490    0.4011 C   0  0  0  0  0  0  0  0  0  0  0  0
    2.7103   -1.4473    1.8323 C   0  0  0  0  0  0  0  0  0  0  0  0
    3.8303   -2.4849    1.8780 C   0  0  0  0  0  0  0  0  0  0  0  0
    4.9618   -2.1346    0.9160 C   0  0  0  0  0  0  0  0  0  0  0  0
    4.4491   -1.9315   -0.5068 C   0  0  0  0  0  0  0  0  0  0  0  0
    3.3311   -0.8921   -0.5597 C   0  0  0  0  0  0  0  0  0  0  0  0
   -3.7548   -1.1561   -2.0043 C   0  0  0  0  0  0  0  0  0  0  0  0
   -2.0443    4.9960    0.7275 H   0  0  0  0  0  0  0  0  0  0  0  0
    0.3186    5.3653    1.4066 H   0  0  0  0  0  0  0  0  0  0  0  0
    1.9099    3.4755    1.3884 H   0  0  0  0  0  0  0  0  0  0  0  0
   -2.7872    2.7669    0.0466 H   0  0  0  0  0  0  0  0  0  0  0  0
   -0.4347   -1.5491   -0.3067 H   0  0  0  0  0  0  0  0  0  0  0  0
    1.7599   -2.2061    0.0679 H   0  0  0  0  0  0  0  0  0  0  0  0
    1.8936   -1.7648    2.4924 H   0  0  0  0  0  0  0  0  0  0  0  0
    3.0870   -0.4988    2.2370 H   0  0  0  0  0  0  0  0  0  0  0  0
    4.2235   -2.5574    2.8983 H   0  0  0  0  0  0  0  0  0  0  0  0
    3.4245   -3.4711    1.6212 H   0  0  0  0  0  0  0  0  0  0  0  0
    5.4605   -1.2193    1.2577 H   0  0  0  0  0  0  0  0  0  0  0  0
    5.7142   -2.9312    0.9263 H   0  0  0  0  0  0  0  0  0  0  0  0
    5.2751   -1.6169   -1.1546 H   0  0  0  0  0  0  0  0  0  0  0  0
    4.0792   -2.8857   -0.9017 H   0  0  0  0  0  0  0  0  0  0  0  0
    3.7485    0.0921   -0.3098 H   0  0  0  0  0  0  0  0  0  0  0  0
    2.9519   -0.8180   -1.5866 H   0  0  0  0  0  0  0  0  0  0  0  0
   -4.3350   -0.2913   -2.3413 H   0  0  0  0  0  0  0  0  0  0  0  0
   -4.2977   -1.7118   -1.2333 H   0  0  0  0  0  0  0  0  0  0  0  0
   -3.5922   -1.8185   -2.8590 H   0  0  0  0  0  0  0  0  0  0  0  0
 39 20  1  0
 37 20  1  0
 20 13  1  0
 20 38  1  0
 36 19  1  0
 13 11  1  0
 33 18  1  0
 34 18  1  0
 19 18  1  0
 19 35  1  0
 19 14  1  0
 18 17  1  0
 11 10  1  0
 11 12  2  0
 25  9  1  0
 10  9  1  0
 10  5  2  0
  9  8  2  0
 24  6  1  0
 26 14  1  0
  5  6  1  0
  5  4  1  0
  6  1  2  0
  8 14  1  0
  8  7  1  0
 14 15  1  0
  4  7  2  0
  4  3  1  0
  1 21  1  0
  1  2  1  0
 17 32  1  0
 17 31  1  0
 17 16  1  0
  3  2  2  0
  3 23  1  0
  2 22  1  0
 30 16  1  0
 15 16  1  0
 15 28  1  0
 15 27  1  0
 16 29  1  0
M  END
>  <_TriposChargeType>  (59) 
GASTEIGER

>  <Activity>  (59) 
3.12

$$$$
4_4C
     RDKit          3D

 39 41  0  0  0  0  0  0  0  0999 V2000
   -1.3397    4.1688    0.7257 C   0  0  0  0  0  0  0  0  0  0  0  0
   -0.0215    4.3780    1.1018 C   0  0  0  0  0  0  0  0  0  0  0  0
    0.8773    3.3093    1.0906 C   0  0  0  0  0  0  0  0  0  0  0  0
    0.4951    2.0288    0.7130 C   0  0  0  0  0  0  0  0  0  0  0  0
   -0.8403    1.8030    0.3314 C   0  0  0  0  0  0  0  0  0  0  0  0
   -1.7484    2.8930    0.3415 C   0  0  0  0  0  0  0  0  0  0  0  0
    1.4266    1.0590    0.7242 N   0  0  0  0  0  0  0  0  0  0  0  0
    1.0917   -0.2024    0.3687 C   0  0  0  0  0  0  0  0  0  0  0  0
   -0.1936   -0.5285   -0.0278 C   0  0  0  0  0  0  0  0  0  0  0  0
   -1.1587    0.4819   -0.0523 C   0  0  0  0  0  0  0  0  0  0  0  0
   -2.5285    0.1097   -0.4799 C   0  0  0  0  0  0  0  0  0  0  0  0
   -3.5077    0.3767    0.2077 O   0  0  0  0  0  0  0  0  0  0  0  0
   -2.6001   -0.5482   -1.7020 N   0  0  0  0  0  0  0  0  0  0  0  0
   -3.8623   -0.8949   -2.2266 N   0  0  0  0  0  0  0  0  0  0  0  0
    2.2011   -1.2337    0.4343 C   0  0  0  0  0  0  0  0  0  0  0  0
    2.5083   -1.8375   -0.9460 C   0  0  0  0  0  0  0  0  0  0  0  0
    3.6373   -2.8636   -0.8674 C   0  0  0  0  0  0  0  0  0  0  0  0
    3.3412   -3.9491    0.1634 C   0  0  0  0  0  0  0  0  0  0  0  0
    3.0370   -3.3554    1.5358 C   0  0  0  0  0  0  0  0  0  0  0  0
    1.9050   -2.3317    1.4690 C   0  0  0  0  0  0  0  0  0  0  0  0
   -2.0509    4.9909    0.7334 H   0  0  0  0  0  0  0  0  0  0  0  0
    0.3130    5.3664    1.4057 H   0  0  0  0  0  0  0  0  0  0  0  0
    1.9101    3.4808    1.3869 H   0  0  0  0  0  0  0  0  0  0  0  0
   -2.7895    2.7528    0.0559 H   0  0  0  0  0  0  0  0  0  0  0  0
   -0.4507   -1.5493   -0.2914 H   0  0  0  0  0  0  0  0  0  0  0  0
   -1.7820   -0.6270   -2.3037 H   0  0  0  0  0  0  0  0  0  0  0  0
   -4.4663   -0.0695   -2.1263 H   0  0  0  0  0  0  0  0  0  0  0  0
   -4.2864   -1.5630   -1.5730 H   0  0  0  0  0  0  0  0  0  0  0  0
    3.1096   -0.7110    0.7680 H   0  0  0  0  0  0  0  0  0  0  0  0
    2.7871   -1.0439   -1.6504 H   0  0  0  0  0  0  0  0  0  0  0  0
    1.6168   -2.3242   -1.3615 H   0  0  0  0  0  0  0  0  0  0  0  0
    3.7877   -3.3213   -1.8517 H   0  0  0  0  0  0  0  0  0  0  0  0
    4.5739   -2.3563   -0.6049 H   0  0  0  0  0  0  0  0  0  0  0  0
    2.4855   -4.5475   -0.1728 H   0  0  0  0  0  0  0  0  0  0  0  0
    4.1970   -4.6294    0.2380 H   0  0  0  0  0  0  0  0  0  0  0  0
    2.7674   -4.1571    2.2326 H   0  0  0  0  0  0  0  0  0  0  0  0
    3.9394   -2.8759    1.9346 H   0  0  0  0  0  0  0  0  0  0  0  0
    0.9713   -2.8528    1.2221 H   0  0  0  0  0  0  0  0  0  0  0  0
    1.7599   -1.8853    2.4607 H   0  0  0  0  0  0  0  0  0  0  0  0
 26 13  1  0
 14 27  1  0
 14 13  1  0
 14 28  1  0
 32 17  1  0
 13 11  1  0
 30 16  1  0
 31 16  1  0
 16 17  1  0
 16 15  1  0
 17 33  1  0
 17 18  1  0
 11 10  1  0
 11 12  2  0
 25  9  1  0
 34 18  1  0
 10  9  1  0
 10  5  2  0
  9  8  2  0
 24  6  1  0
 18 35  1  0
 18 19  1  0
  5  6  1  0
  5  4  1  0
  6  1  2  0
  8 15  1  0
  8  7  1  0
 15 29  1  0
 15 20  1  0
  4  7  2  0
  4  3  1  0
  1 21  1  0
  1  2  1  0
  3  2  2  0
  3 23  1  0
  2 22  1  0
 38 20  1  0
 20 19  1  0
 20 39  1  0
 19 37  1  0
 19 36  1  0
M  END
>  <_TriposChargeType>  (60) 
GASTEIGER

>  <Activity>  (60) 
2.94

$$$$
3_12A
     RDKit          3D

 33 35  0  0  0  0  0  0  0  0999 V2000
   -1.3318    4.1744    0.7229 C   0  0  0  0  0  0  0  0  0  0  0  0
   -0.0156    4.3776    1.1042 C   0  0  0  0  0  0  0  0  0  0  0  0
    0.8757    3.3044    1.0937 C   0  0  0  0  0  0  0  0  0  0  0  0
    0.4878    2.0267    0.7134 C   0  0  0  0  0  0  0  0  0  0  0  0
   -0.8489    1.7971    0.3294 C   0  0  0  0  0  0  0  0  0  0  0  0
   -1.7459    2.8995    0.3376 C   0  0  0  0  0  0  0  0  0  0  0  0
    1.4241    1.0651    0.7299 N   0  0  0  0  0  0  0  0  0  0  0  0
    1.0985   -0.1924    0.3582 C   0  0  0  0  0  0  0  0  0  0  0  0
   -0.1862   -0.5290   -0.0266 C   0  0  0  0  0  0  0  0  0  0  0  0
   -1.1691    0.4675   -0.0457 C   0  0  0  0  0  0  0  0  0  0  0  0
   -2.5481    0.0772   -0.4429 C   0  0  0  0  0  0  0  0  0  0  0  0
   -3.5938    0.6007   -0.1123 O   0  0  0  0  0  0  0  0  0  0  0  0
   -2.5488   -0.9814   -1.2770 O   0  0  0  0  0  0  0  0  0  0  0  0
    2.1840   -1.2456    0.4110 C   0  0  0  0  0  0  0  0  0  0  0  0
    3.4932   -0.7947   -0.2630 C   0  0  0  0  0  0  0  0  0  0  0  0
    4.4594   -0.5228    0.8816 C   0  0  0  0  0  0  0  0  0  0  0  0
    4.0844   -1.5800    1.9046 C   0  0  0  0  0  0  0  0  0  0  0  0
    2.5617   -1.5956    1.8627 C   0  0  0  0  0  0  0  0  0  0  0  0
   -2.0385    5.0005    0.7237 H   0  0  0  0  0  0  0  0  0  0  0  0
    0.3238    5.3642    1.4080 H   0  0  0  0  0  0  0  0  0  0  0  0
    1.9094    3.4701    1.3906 H   0  0  0  0  0  0  0  0  0  0  0  0
   -2.7855    2.7796    0.0415 H   0  0  0  0  0  0  0  0  0  0  0  0
   -0.4232   -1.5525   -0.3003 H   0  0  0  0  0  0  0  0  0  0  0  0
   -3.4989   -1.1221   -1.4751 H   0  0  0  0  0  0  0  0  0  0  0  0
    1.8319   -2.1485   -0.1046 H   0  0  0  0  0  0  0  0  0  0  0  0
    3.3840    0.0702   -0.9252 H   0  0  0  0  0  0  0  0  0  0  0  0
    3.8864   -1.6209   -0.8695 H   0  0  0  0  0  0  0  0  0  0  0  0
    4.2952    0.4807    1.2910 H   0  0  0  0  0  0  0  0  0  0  0  0
    5.5045   -0.5991    0.5685 H   0  0  0  0  0  0  0  0  0  0  0  0
    4.4694   -1.3509    2.9024 H   0  0  0  0  0  0  0  0  0  0  0  0
    4.4792   -2.5572    1.6022 H   0  0  0  0  0  0  0  0  0  0  0  0
    2.1677   -0.8626    2.5775 H   0  0  0  0  0  0  0  0  0  0  0  0
    2.1667   -2.5741    2.1562 H   0  0  0  0  0  0  0  0  0  0  0  0
 24 13  1  0
 13 11  1  0
 26 15  1  0
 27 15  1  0
 11 12  2  0
 11 10  1  0
 23  9  1  0
 15 14  1  0
 15 16  1  0
 25 14  1  0
 10  9  1  0
 10  5  2  0
  9  8  2  0
 22  6  1  0
  5  6  1  0
  5  4  1  0
  6  1  2  0
  8 14  1  0
  8  7  1  0
 14 18  1  0
 29 16  1  0
  4  7  2  0
  4  3  1  0
  1 19  1  0
  1  2  1  0
 16 28  1  0
 16 17  1  0
  3  2  2  0
  3 21  1  0
  2 20  1  0
 31 17  1  0
 18 17  1  0
 18 33  1  0
 18 32  1  0
 17 30  1  0
M  END
>  <_TriposChargeType>  (61) 
GASTEIGER

>  <Activity>  (61) 
3.21

$$$$
2_2D
     RDKit          3D

 35 37  0  0  0  0  0  0  0  0999 V2000
   -1.3621    4.1536    0.7178 C   0  0  0  0  0  0  0  0  0  0  0  0
   -0.0512    4.3993    1.1001 C   0  0  0  0  0  0  0  0  0  0  0  0
    0.8608    3.3339    1.0914 C   0  0  0  0  0  0  0  0  0  0  0  0
    0.5406    2.0298    0.7225 C   0  0  0  0  0  0  0  0  0  0  0  0
   -0.7965    1.8086    0.3386 C   0  0  0  0  0  0  0  0  0  0  0  0
   -1.7332    2.8634    0.3383 C   0  0  0  0  0  0  0  0  0  0  0  0
    1.4456    1.0236    0.7266 N   0  0  0  0  0  0  0  0  0  0  0  0
    1.0754   -0.2242    0.3575 C   0  0  0  0  0  0  0  0  0  0  0  0
   -0.2251   -0.5110   -0.0340 C   0  0  0  0  0  0  0  0  0  0  0  0
   -1.1656    0.5140   -0.0418 C   0  0  0  0  0  0  0  0  0  0  0  0
    2.1307   -1.3197    0.3721 C   0  0  0  0  0  0  0  0  0  0  0  0
    2.7189   -1.5531    1.7750 C   0  0  0  0  0  0  0  0  0  0  0  0
    3.8040   -0.5544    2.1770 C   0  0  0  0  0  0  0  0  0  0  0  0
    2.2155    3.6112    1.4908 N   0  0  0  0  0  4  0  0  0  0  0  0
    2.9999    3.9771    0.6041 O   0  0  0  0  0  0  0  0  0  0  0  0
    2.4679    3.5492    2.7024 O   0  0  0  0  0  1  0  0  0  0  0  0
    4.8852   -0.4288    1.1105 C   0  0  0  0  0  0  0  0  0  0  0  0
    4.2995   -0.0829   -0.2532 C   0  0  0  0  0  0  0  0  0  0  0  0
    3.2273   -1.0842   -0.6809 C   0  0  0  0  0  0  0  0  0  0  0  0
   -2.0945    4.9577    0.7133 H   0  0  0  0  0  0  0  0  0  0  0  0
    0.2581    5.3978    1.3991 H   0  0  0  0  0  0  0  0  0  0  0  0
   -2.7644    2.6803    0.0396 H   0  0  0  0  0  0  0  0  0  0  0  0
   -0.5141   -1.5141   -0.3313 H   0  0  0  0  0  0  0  0  0  0  0  0
   -2.1857    0.2931   -0.3472 H   0  0  0  0  0  0  0  0  0  0  0  0
    1.6217   -2.2526    0.0912 H   0  0  0  0  0  0  0  0  0  0  0  0
    3.1660   -2.5563    1.7929 H   0  0  0  0  0  0  0  0  0  0  0  0
    1.9249   -1.5559    2.5319 H   0  0  0  0  0  0  0  0  0  0  0  0
    3.3622    0.4287    2.3716 H   0  0  0  0  0  0  0  0  0  0  0  0
    4.2604   -0.8775    3.1200 H   0  0  0  0  0  0  0  0  0  0  0  0
    5.6071    0.3406    1.4071 H   0  0  0  0  0  0  0  0  0  0  0  0
    5.4385   -1.3734    1.0401 H   0  0  0  0  0  0  0  0  0  0  0  0
    3.8852    0.9308   -0.2311 H   0  0  0  0  0  0  0  0  0  0  0  0
    5.1017   -0.0714   -1.0004 H   0  0  0  0  0  0  0  0  0  0  0  0
    2.7873   -0.7652   -1.6337 H   0  0  0  0  0  0  0  0  0  0  0  0
    3.7241   -2.0442   -0.8760 H   0  0  0  0  0  0  0  0  0  0  0  0
 34 19  1  0
 33 18  1  0
 35 19  1  0
 19 18  1  0
 19 11  1  0
 24 10  1  0
 23  9  1  0
 18 32  1  0
 18 17  1  0
 10  9  1  0
 10  5  2  0
  9  8  2  0
 22  6  1  0
 25 11  1  0
  6  5  1  0
  6  1  2  0
  5  4  1  0
  8 11  1  0
  8  7  1  0
 11 12  1  0
 15 14  2  0
 20  1  1  0
  1  2  1  0
  4  7  2  0
  4  3  1  0
 31 17  1  0
  3  2  2  0
  3 14  1  0
  2 21  1  0
 17 30  1  0
 17 13  1  0
 14 16  1  0
 12 26  1  0
 12 13  1  0
 12 27  1  0
 13 28  1  0
 13 29  1  0
M  CHG  2  14   1  16  -1
M  END
>  <_TriposChargeType>  (62) 
GASTEIGER

>  <Activity>  (62) 
6.61

$$$$
4_3B
     RDKit          3D

 47 51  0  0  0  0  0  0  0  0999 V2000
   -1.3526    4.1493    0.7177 C   0  0  0  0  0  0  0  0  0  0  0  0
   -0.0351    4.3761    1.0985 C   0  0  0  0  0  0  0  0  0  0  0  0
    0.8813    3.3201    1.0947 C   0  0  0  0  0  0  0  0  0  0  0  0
    0.5139    2.0352    0.7175 C   0  0  0  0  0  0  0  0  0  0  0  0
   -0.8170    1.8124    0.3339 C   0  0  0  0  0  0  0  0  0  0  0  0
   -1.7461    2.8688    0.3355 C   0  0  0  0  0  0  0  0  0  0  0  0
    1.4297    1.0498    0.7310 N   0  0  0  0  0  0  0  0  0  0  0  0
    1.0983   -0.2248    0.3588 C   0  0  0  0  0  0  0  0  0  0  0  0
   -0.2132   -0.5107   -0.0323 C   0  0  0  0  0  0  0  0  0  0  0  0
   -1.1706    0.5147   -0.0383 C   0  0  0  0  0  0  0  0  0  0  0  0
   -0.7107   -1.8502   -0.3948 C   0  0  0  0  0  0  0  0  0  0  0  0
   -0.8365   -2.7206    0.4601 O   0  0  0  0  0  0  0  0  0  0  0  0
   -1.0702   -2.0880   -1.7132 N   0  0  0  0  0  0  0  0  0  0  0  0
   -0.8157   -1.1845   -2.7554 N   0  0  0  0  0  0  0  0  0  0  0  0
    2.2579   -1.2339    0.4461 C   0  0  1  0  0  0  0  0  0  0  0  0
    2.3681   -2.1849   -0.7800 C   0  0  0  0  0  0  0  0  0  0  0  0
    3.5492   -3.1614   -0.6329 C   0  0  1  0  0  0  0  0  0  0  0  0
    4.8597   -2.3719   -0.5454 C   0  0  0  0  0  0  0  0  0  0  0  0
    4.8184   -1.4402    0.6705 C   0  0  1  0  0  0  0  0  0  0  0  0
    3.6318   -0.4738    0.5274 C   0  0  0  0  0  0  0  0  0  0  0  0
    3.3593   -3.9875    0.6505 C   0  0  0  0  0  0  0  0  0  0  0  0
    3.3221   -3.0599    1.8760 C   0  0  1  0  0  0  0  0  0  0  0  0
    4.6370   -2.2702    1.9495 C   0  0  0  0  0  0  0  0  0  0  0  0
    2.1420   -2.0788    1.7433 C   0  0  0  0  0  0  0  0  0  0  0  0
   -2.0709    4.9650    0.7193 H   0  0  0  0  0  0  0  0  0  0  0  0
    0.2852    5.3699    1.4003 H   0  0  0  0  0  0  0  0  0  0  0  0
    1.9104    3.5027    1.3950 H   0  0  0  0  0  0  0  0  0  0  0  0
   -2.7784    2.6967    0.0397 H   0  0  0  0  0  0  0  0  0  0  0  0
   -2.1927    0.2895   -0.3339 H   0  0  0  0  0  0  0  0  0  0  0  0
   -1.3868   -3.0376   -1.9057 H   0  0  0  0  0  0  0  0  0  0  0  0
   -1.5612   -1.2576   -3.4515 H   0  0  0  0  0  0  0  0  0  0  0  0
    0.0478   -1.4612   -3.2300 H   0  0  0  0  0  0  0  0  0  0  0  0
    2.4762   -1.6010   -1.7034 H   0  0  0  0  0  0  0  0  0  0  0  0
    1.4727   -2.7963   -0.9022 H   0  0  0  0  0  0  0  0  0  0  0  0
    3.5814   -3.8313   -1.4998 H   0  0  0  0  0  0  0  0  0  0  0  0
    5.7095   -3.0607   -0.4633 H   0  0  0  0  0  0  0  0  0  0  0  0
    5.0097   -1.7888   -1.4623 H   0  0  0  0  0  0  0  0  0  0  0  0
    5.7529   -0.8710    0.7304 H   0  0  0  0  0  0  0  0  0  0  0  0
    3.7720    0.1469   -0.3683 H   0  0  0  0  0  0  0  0  0  0  0  0
    3.6473    0.2096    1.3875 H   0  0  0  0  0  0  0  0  0  0  0  0
    4.1782   -4.7101    0.7536 H   0  0  0  0  0  0  0  0  0  0  0  0
    2.4298   -4.5670    0.5906 H   0  0  0  0  0  0  0  0  0  0  0  0
    3.2011   -3.6571    2.7869 H   0  0  0  0  0  0  0  0  0  0  0  0
    5.4822   -2.9584    2.0733 H   0  0  0  0  0  0  0  0  0  0  0  0
    4.6314   -1.6124    2.8273 H   0  0  0  0  0  0  0  0  0  0  0  0
    1.2090   -2.6497    1.7608 H   0  0  0  0  0  0  0  0  0  0  0  0
    2.1109   -1.4209    2.6224 H   0  0  0  0  0  0  0  0  0  0  0  0
 31 14  1  0
 32 14  1  0
 14 13  1  0
 30 13  1  0
 13 11  1  0
 33 16  1  0
 17 35  1  6
 37 18  1  0
 34 16  1  0
 16 17  1  0
 16 15  1  0
 17 18  1  0
 17 21  1  0
 18 36  1  0
 18 19  1  0
 11  9  1  0
 11 12  2  0
 39 20  1  0
 29 10  1  0
 10  9  1  0
 10  5  2  0
  9  8  2  0
 28  6  1  0
  5  6  1  0
  5  4  1  0
  6  1  2  0
 15  8  1  6
  8  7  1  0
 15 20  1  0
 15 24  1  0
 20 19  1  0
 20 40  1  0
 42 21  1  0
 21 41  1  0
 21 22  1  0
 19 38  1  1
 19 23  1  0
  4  7  2  0
  4  3  1  0
  1 25  1  0
  1  2  1  0
  3  2  2  0
  3 27  1  0
  2 26  1  0
 24 46  1  0
 24 22  1  0
 24 47  1  0
 22 23  1  0
 22 43  1  1
 23 44  1  0
 23 45  1  0
M  END
>  <_TriposChargeType>  (63) 
GASTEIGER

>  <Activity>  (63) 
4.38

$$$$
4_5F
     RDKit          3D

 58 61  0  0  0  0  0  0  0  0999 V2000
   -1.3589    4.1540    0.7311 C   0  0  0  0  0  0  0  0  0  0  0  0
   -0.0421    4.3886    1.0912 C   0  0  0  0  0  0  0  0  0  0  0  0
    0.9048    3.3449    1.0869 C   0  0  0  0  0  0  0  0  0  0  0  0
    0.5207    2.0401    0.7188 C   0  0  0  0  0  0  0  0  0  0  0  0
   -0.8208    1.8044    0.3332 C   0  0  0  0  0  0  0  0  0  0  0  0
   -1.7444    2.8741    0.3545 C   0  0  0  0  0  0  0  0  0  0  0  0
    1.4229    1.0368    0.7284 N   0  0  0  0  0  0  0  0  0  0  0  0
    1.0825   -0.2266    0.3848 C   0  0  0  0  0  0  0  0  0  0  0  0
   -0.2024   -0.5177   -0.0433 C   0  0  0  0  0  0  0  0  0  0  0  0
   -1.1736    0.4924   -0.0685 C   0  0  0  0  0  0  0  0  0  0  0  0
   -2.5635    0.1304   -0.5548 C   0  0  0  0  0  0  0  0  0  0  0  0
   -2.9533    0.7531   -1.8842 C   0  0  0  0  0  0  0  0  0  0  0  0
   -4.0690    1.2388   -2.0748 O   0  0  0  0  0  0  0  0  0  0  0  0
   -1.9912    0.6700   -2.8822 N   0  0  0  0  0  0  0  0  0  0  0  0
   -2.2565    1.2279   -4.1514 N   0  0  0  0  0  0  0  0  0  0  0  0
    2.1969   -1.2730    0.3829 C   0  0  0  0  0  0  0  0  0  0  0  0
    1.7533   -2.7136    0.7220 C   0  0  0  0  0  0  0  0  0  0  0  0
    1.3913   -2.8864    2.1969 C   0  0  0  0  0  0  0  0  0  0  0  0
    2.5484   -2.4801    3.1037 C   0  0  0  0  0  0  0  0  0  0  0  0
    3.0430   -1.0719    2.7912 C   0  0  0  0  0  0  0  0  0  0  0  0
    3.3803   -0.9056    1.3077 C   0  0  0  0  0  0  0  0  0  0  0  0
    2.3338    3.7049    1.4948 C   0  0  0  0  0  0  0  0  0  0  0  0
    3.3623    3.4734    0.3727 C   0  0  0  0  0  0  0  0  0  0  0  0
    4.7659    3.8935    0.8071 C   0  0  0  0  0  0  0  0  0  0  0  0
    5.1826    3.2084    2.1053 C   0  0  0  0  0  0  0  0  0  0  0  0
    4.1729    3.4573    3.2219 C   0  0  0  0  0  0  0  0  0  0  0  0
    2.7622    3.0374    2.8124 C   0  0  0  0  0  0  0  0  0  0  0  0
   -2.0834    4.9642    0.7404 H   0  0  0  0  0  0  0  0  0  0  0  0
    0.2486    5.3967    1.3800 H   0  0  0  0  0  0  0  0  0  0  0  0
   -2.7867    2.7293    0.0794 H   0  0  0  0  0  0  0  0  0  0  0  0
   -0.4643   -1.5193   -0.3666 H   0  0  0  0  0  0  0  0  0  0  0  0
   -3.2954    0.4274    0.2061 H   0  0  0  0  0  0  0  0  0  0  0  0
   -2.6677   -0.9563   -0.6651 H   0  0  0  0  0  0  0  0  0  0  0  0
   -1.0401    0.3736   -2.6677 H   0  0  0  0  0  0  0  0  0  0  0  0
   -3.2435    1.0314   -4.3632 H   0  0  0  0  0  0  0  0  0  0  0  0
   -2.2402    2.2480   -4.0486 H   0  0  0  0  0  0  0  0  0  0  0  0
    2.5783   -1.2816   -0.6476 H   0  0  0  0  0  0  0  0  0  0  0  0
    2.5830   -3.3952    0.4889 H   0  0  0  0  0  0  0  0  0  0  0  0
    0.9207   -3.0460    0.0947 H   0  0  0  0  0  0  0  0  0  0  0  0
    0.5049   -2.2887    2.4392 H   0  0  0  0  0  0  0  0  0  0  0  0
    1.1294   -3.9332    2.3888 H   0  0  0  0  0  0  0  0  0  0  0  0
    2.2355   -2.5387    4.1522 H   0  0  0  0  0  0  0  0  0  0  0  0
    3.3748   -3.1907    2.9782 H   0  0  0  0  0  0  0  0  0  0  0  0
    2.2750   -0.3483    3.0864 H   0  0  0  0  0  0  0  0  0  0  0  0
    3.9316   -0.8536    3.3945 H   0  0  0  0  0  0  0  0  0  0  0  0
    3.7340    0.1141    1.1198 H   0  0  0  0  0  0  0  0  0  0  0  0
    4.2270   -1.5638    1.0699 H   0  0  0  0  0  0  0  0  0  0  0  0
    2.3517    4.7877    1.6905 H   0  0  0  0  0  0  0  0  0  0  0  0
    3.0746    4.0409   -0.5211 H   0  0  0  0  0  0  0  0  0  0  0  0
    3.3957    2.4211    0.0725 H   0  0  0  0  0  0  0  0  0  0  0  0
    5.4836    3.6506    0.0154 H   0  0  0  0  0  0  0  0  0  0  0  0
    4.7962    4.9817    0.9419 H   0  0  0  0  0  0  0  0  0  0  0  0
    5.2802    2.1292    1.9346 H   0  0  0  0  0  0  0  0  0  0  0  0
    6.1687    3.5734    2.4135 H   0  0  0  0  0  0  0  0  0  0  0  0
    4.4739    2.9066    4.1203 H   0  0  0  0  0  0  0  0  0  0  0  0
    4.1746    4.5222    3.4851 H   0  0  0  0  0  0  0  0  0  0  0  0
    2.7372    1.9477    2.7251 H   0  0  0  0  0  0  0  0  0  0  0  0
    2.0595    3.3003    3.6128 H   0  0  0  0  0  0  0  0  0  0  0  0
 35 15  1  0
 15 36  1  0
 15 14  1  0
 14 34  1  0
 14 12  1  0
 13 12  2  0
 12 11  1  0
 33 11  1  0
 37 16  1  0
 11 10  1  0
 11 32  1  0
 49 23  1  0
 31  9  1  0
 10  9  1  0
 10  5  2  0
  9  8  2  0
 51 24  1  0
 50 23  1  0
 30  6  1  0
 39 17  1  0
  5  6  1  0
  5  4  1  0
  6  1  2  0
 23 24  1  0
 23 22  1  0
 16  8  1  0
 16 17  1  0
 16 21  1  0
  8  7  1  0
 38 17  1  0
  4  7  2  0
  4  3  1  0
 17 18  1  0
  1 28  1  0
  1  2  1  0
 24 52  1  0
 24 25  1  0
 47 21  1  0
  3  2  2  0
  3 22  1  0
  2 29  1  0
 46 21  1  0
 21 20  1  0
 22 48  1  0
 22 27  1  0
 53 25  1  0
 25 54  1  0
 25 26  1  0
 18 41  1  0
 18 40  1  0
 18 19  1  0
 57 27  1  0
 20 44  1  0
 20 19  1  0
 20 45  1  0
 27 26  1  0
 27 58  1  0
 43 19  1  0
 19 42  1  0
 26 56  1  0
 26 55  1  0
M  END
>  <_TriposChargeType>  (64) 
GASTEIGER

>  <Activity>  (64) 
4.87

$$$$
3_9
     RDKit          3D

 20 21  0  0  0  0  0  0  0  0999 V2000
   -1.3317    4.1721    0.7235 C   0  0  0  0  0  0  0  0  0  0  0  0
   -0.0156    4.3774    1.1040 C   0  0  0  0  0  0  0  0  0  0  0  0
    0.8776    3.3058    1.0933 C   0  0  0  0  0  0  0  0  0  0  0  0
    0.4920    2.0269    0.7138 C   0  0  0  0  0  0  0  0  0  0  0  0
   -0.8472    1.7948    0.3294 C   0  0  0  0  0  0  0  0  0  0  0  0
   -1.7446    2.8965    0.3384 C   0  0  0  0  0  0  0  0  0  0  0  0
    1.4301    1.0663    0.7302 N   0  0  0  0  0  0  0  0  0  0  0  0
    1.0840   -0.1809    0.3620 C   0  0  0  0  0  0  0  0  0  0  0  0
   -0.1868   -0.5315   -0.0296 C   0  0  0  0  0  0  0  0  0  0  0  0
   -1.1691    0.4635   -0.0479 C   0  0  0  0  0  0  0  0  0  0  0  0
   -2.5479    0.0732   -0.4470 C   0  0  0  0  0  0  0  0  0  0  0  0
   -3.5934    0.6051   -0.1297 O   0  0  0  0  0  0  0  0  0  0  0  0
   -2.5486   -0.9980   -1.2648 O   0  0  0  0  0  0  0  0  0  0  0  0
   -2.0395    4.9972    0.7245 H   0  0  0  0  0  0  0  0  0  0  0  0
    0.3222    5.3647    1.4073 H   0  0  0  0  0  0  0  0  0  0  0  0
    1.9109    3.4739    1.3899 H   0  0  0  0  0  0  0  0  0  0  0  0
   -2.7843    2.7765    0.0425 H   0  0  0  0  0  0  0  0  0  0  0  0
    1.8853   -0.9137    0.3955 H   0  0  0  0  0  0  0  0  0  0  0  0
   -0.4026   -1.5579   -0.3059 H   0  0  0  0  0  0  0  0  0  0  0  0
   -3.4984   -1.1389   -1.4647 H   0  0  0  0  0  0  0  0  0  0  0  0
 20 13  1  0
 13 11  1  0
 11 12  2  0
 11 10  1  0
 19  9  1  0
 10  9  1  0
 10  5  2  0
  9  8  2  0
 17  6  1  0
  5  6  1  0
  5  4  1  0
  6  1  2  0
  8 18  1  0
  8  7  1  0
  4  7  2  0
  4  3  1  0
  1 14  1  0
  1  2  1  0
  3  2  2  0
  3 16  1  0
  2 15  1  0
M  END
>  <_TriposChargeType>  (65) 
GASTEIGER

>  <Activity>  (65) 
3.25

$$$$
4_7H
     RDKit          3D

 60 64  0  0  0  0  0  0  0  0999 V2000
   -0.9500    1.8890    0.3040 C   0  0  0  0  0  0  0  0  0  0  0  0
   -1.9230    2.9210    0.4080 C   0  0  0  0  0  0  0  0  0  0  0  0
   -1.5920    4.2010    0.8830 C   0  0  0  0  0  0  0  0  0  0  0  0
   -0.2770    4.4850    1.2830 C   0  0  0  0  0  0  0  0  0  0  0  0
    0.7050    3.4830    1.2160 C   0  0  0  0  0  0  0  0  0  0  0  0
    0.3720    2.1980    0.7430 C   0  0  0  0  0  0  0  0  0  0  0  0
    1.3370    1.2430    0.7440 N   0  0  0  0  0  0  0  0  0  0  0  0
    1.1220   -0.0390    0.3660 C   0  0  0  0  0  0  0  0  0  0  0  0
   -0.1670   -0.3800   -0.1000 C   0  0  0  0  0  0  0  0  0  0  0  0
   -1.2170    0.5700   -0.1860 C   0  0  0  0  0  0  0  0  0  0  0  0
    2.1580   -1.0020    0.4780 C   0  0  0  0  0  0  0  0  0  0  0  0
    3.4610   -0.6420    0.7020 N   0  0  0  0  0  0  0  0  0  0  0  0
    1.8440   -2.2170    0.4250 O   0  0  0  0  0  0  0  0  0  0  0  0
   -2.5640    0.1420   -0.7380 C   0  0  2  0  0  0  0  0  0  0  0  0
   -3.4390   -0.4150    0.4310 C   0  0  0  0  0  0  0  0  0  0  0  0
   -2.4790   -0.7380   -2.0310 C   0  0  0  0  0  0  0  0  0  0  0  0
   -3.7750   -1.0290   -2.8660 C   0  0  1  0  0  0  0  0  0  0  0  0
   -4.9780   -0.6210    0.2060 C   0  0  2  0  0  0  0  0  0  0  0  0
   -5.4350   -2.0800   -0.1370 C   0  0  0  0  0  0  0  0  0  0  0  0
   -4.5810   -2.9110   -1.1280 C   0  0  0  0  0  0  0  0  0  0  0  0
   -4.4500   -2.4170   -2.5940 C   0  0  0  0  0  0  0  0  0  0  0  0
   -5.7080    0.5110   -0.5950 C   0  0  0  0  0  0  0  0  0  0  0  0
   -5.9760    0.3020   -2.1090 C   0  0  0  0  0  0  0  0  0  0  0  0
   -4.7600    0.1730   -3.0610 C   0  0  0  0  0  0  0  0  0  0  0  0
    4.5200   -1.5010    0.8480 C   0  0  0  0  0  0  0  0  0  0  0  0
    4.6920   -2.6650    0.0580 C   0  0  0  0  0  0  0  0  0  0  0  0
    5.4750   -1.2190    1.8490 C   0  0  0  0  0  0  0  0  0  0  0  0
    6.5470   -2.1020    2.0890 C   0  0  0  0  0  0  0  0  0  0  0  0
    6.6710   -3.2820    1.3330 C   0  0  0  0  0  0  0  0  0  0  0  0
    5.7410   -3.5640    0.3180 C   0  0  0  0  0  0  0  0  0  0  0  0
   -2.9550    2.7250    0.1160 H   0  0  0  0  0  0  0  0  0  0  0  0
   -2.3560    4.9760    0.9410 H   0  0  0  0  0  0  0  0  0  0  0  0
   -0.0200    5.4800    1.6440 H   0  0  0  0  0  0  0  0  0  0  0  0
    1.7250    3.7030    1.5300 H   0  0  0  0  0  0  0  0  0  0  0  0
   -0.3590   -1.4100   -0.4030 H   0  0  0  0  0  0  0  0  0  0  0  0
    3.6590    0.3470    0.7660 H   0  0  0  0  0  0  0  0  0  0  0  0
   -3.0590    1.0370   -1.1170 H   0  0  0  0  0  0  0  0  0  0  0  0
   -3.0490   -1.4160    0.6120 H   0  0  0  0  0  0  0  0  0  0  0  0
   -3.3720    0.3450    1.2100 H   0  0  0  0  0  0  0  0  0  0  0  0
   -1.8400   -0.1680   -2.7060 H   0  0  0  0  0  0  0  0  0  0  0  0
   -2.1580   -1.7170   -1.6740 H   0  0  0  0  0  0  0  0  0  0  0  0
   -3.3760   -1.1450   -3.8740 H   0  0  0  0  0  0  0  0  0  0  0  0
   -5.3670   -0.4890    1.2160 H   0  0  0  0  0  0  0  0  0  0  0  0
   -5.3710   -2.6250    0.8040 H   0  0  0  0  0  0  0  0  0  0  0  0
   -6.3980   -1.9640   -0.6350 H   0  0  0  0  0  0  0  0  0  0  0  0
   -3.5680   -2.8660   -0.7270 H   0  0  0  0  0  0  0  0  0  0  0  0
   -5.0960   -3.8690   -1.2030 H   0  0  0  0  0  0  0  0  0  0  0  0
   -3.7940   -3.1460   -3.0700 H   0  0  0  0  0  0  0  0  0  0  0  0
   -5.4780   -2.3020   -2.9370 H   0  0  0  0  0  0  0  0  0  0  0  0
   -6.7000    0.5780   -0.1480 H   0  0  0  0  0  0  0  0  0  0  0  0
   -5.0320    1.3660   -0.5520 H   0  0  0  0  0  0  0  0  0  0  0  0
   -6.4840   -0.6600   -2.1730 H   0  0  0  0  0  0  0  0  0  0  0  0
   -6.4860    1.2100   -2.4300 H   0  0  0  0  0  0  0  0  0  0  0  0
   -5.1990    0.0210   -4.0470 H   0  0  0  0  0  0  0  0  0  0  0  0
   -4.1610    1.0630   -2.8630 H   0  0  0  0  0  0  0  0  0  0  0  0
    4.0060   -2.8720   -0.7630 H   0  0  0  0  0  0  0  0  0  0  0  0
    5.3850   -0.3100    2.4440 H   0  0  0  0  0  0  0  0  0  0  0  0
    7.2820   -1.8720    2.8600 H   0  0  0  0  0  0  0  0  0  0  0  0
    7.4870   -3.9770    1.5340 H   0  0  0  0  0  0  0  0  0  0  0  0
    5.8330   -4.4790   -0.2670 H   0  0  0  0  0  0  0  0  0  0  0  0
  1  2  2  0
  1  6  1  0
  1 10  1  0
  2  3  1  0
  3  4  2  0
  4  5  1  0
  5  6  2  0
  6  7  1  0
  7  8  2  0
  8  9  1  0
  9 10  2  0
  8 11  1  0
 11 12  1  0
 11 13  2  0
 10 14  1  0
 14 15  1  0
 14 16  1  0
 16 17  1  0
 15 18  1  0
 18 19  1  0
 19 20  1  0
 20 21  1  0
 17 21  1  0
 18 22  1  0
 22 23  1  0
 23 24  1  0
 24 17  1  0
 12 25  1  0
 26 25  2  0
 25 27  1  0
 26 30  1  0
 27 28  2  0
 28 29  1  0
 29 30  2  0
  2 31  1  0
  3 32  1  0
  4 33  1  0
  5 34  1  0
  9 35  1  0
 12 36  1  0
 14 37  1  6
 15 38  1  0
 15 39  1  0
 16 40  1  0
 16 41  1  0
 17 42  1  6
 18 43  1  1
 19 44  1  0
 19 45  1  0
 20 46  1  0
 20 47  1  0
 21 48  1  0
 21 49  1  0
 22 50  1  0
 22 51  1  0
 23 52  1  0
 23 53  1  0
 24 54  1  0
 24 55  1  0
 26 56  1  0
 27 57  1  0
 28 58  1  0
 29 59  1  0
 30 60  1  0
M  END
>  <_TriposChargeType>  (66) 
USER_CHARGES

>  <Activity>  (66) 
7.08

$$$$
3_14J
     RDKit          3D

 53 57  0  0  0  0  0  0  0  0999 V2000
   -1.3385    4.1640    0.7335 C   0  0  0  0  0  0  0  0  0  0  0  0
   -0.0197    4.3759    1.1047 C   0  0  0  0  0  0  0  0  0  0  0  0
    0.8799    3.3092    1.0866 C   0  0  0  0  0  0  0  0  0  0  0  0
    0.4976    2.0302    0.7056 C   0  0  0  0  0  0  0  0  0  0  0  0
   -0.8396    1.8002    0.3204 C   0  0  0  0  0  0  0  0  0  0  0  0
   -1.7469    2.8883    0.3445 C   0  0  0  0  0  0  0  0  0  0  0  0
    1.4291    1.0643    0.7266 N   0  0  0  0  0  0  0  0  0  0  0  0
    1.0998   -0.2035    0.3783 C   0  0  0  0  0  0  0  0  0  0  0  0
   -0.1938   -0.5186   -0.0185 C   0  0  0  0  0  0  0  0  0  0  0  0
   -1.1792    0.4810   -0.0648 C   0  0  0  0  0  0  0  0  0  0  0  0
   -2.5745    0.0827   -0.4877 C   0  0  0  0  0  0  0  0  0  0  0  0
   -3.4480   -0.2973    0.6838 C   0  0  0  0  0  0  0  0  0  0  0  0
   -3.3488   -1.3470    1.3066 O   0  0  0  0  0  0  0  0  0  0  0  0
   -4.3479    0.6906    0.9508 O   0  0  0  0  0  0  0  0  0  0  0  0
    2.2295   -1.2323    0.4588 C   0  0  1  0  0  0  0  0  0  0  0  0
    3.3938   -0.7919   -0.4740 C   0  0  0  0  0  0  0  0  0  0  0  0
    4.5863   -1.7579   -0.3630 C   0  0  1  0  0  0  0  0  0  0  0  0
    5.0846   -1.7821    1.0912 C   0  0  0  0  0  0  0  0  0  0  0  0
    3.9608   -2.2578    2.0263 C   0  0  1  0  0  0  0  0  0  0  0  0
    2.7678   -1.2920    1.9170 C   0  0  0  0  0  0  0  0  0  0  0  0
    4.1376   -3.1692   -0.7694 C   0  0  0  0  0  0  0  0  0  0  0  0
    3.0103   -3.6465    0.1580 C   0  0  1  0  0  0  0  0  0  0  0  0
   -5.1862    0.4305    2.0830 C   0  0  0  0  0  0  0  0  0  0  0  0
    3.5152   -3.6667    1.6083 C   0  0  0  0  0  0  0  0  0  0  0  0
    1.8207   -2.6771    0.0496 C   0  0  0  0  0  0  0  0  0  0  0  0
   -2.0498    4.9857    0.7460 H   0  0  0  0  0  0  0  0  0  0  0  0
    0.3148    5.3634    1.4104 H   0  0  0  0  0  0  0  0  0  0  0  0
    1.9131    3.4785    1.3817 H   0  0  0  0  0  0  0  0  0  0  0  0
   -2.7883    2.7585    0.0632 H   0  0  0  0  0  0  0  0  0  0  0  0
   -0.4637   -1.5349   -0.2873 H   0  0  0  0  0  0  0  0  0  0  0  0
   -2.5397   -0.7811   -1.1644 H   0  0  0  0  0  0  0  0  0  0  0  0
   -3.0508    0.8686   -1.0844 H   0  0  0  0  0  0  0  0  0  0  0  0
    3.7348    0.2209   -0.2214 H   0  0  0  0  0  0  0  0  0  0  0  0
    3.0472   -0.7485   -1.5153 H   0  0  0  0  0  0  0  0  0  0  0  0
    5.3938   -1.4232   -1.0240 H   0  0  0  0  0  0  0  0  0  0  0  0
    5.4221   -0.7817    1.3889 H   0  0  0  0  0  0  0  0  0  0  0  0
    5.9512   -2.4490    1.1786 H   0  0  0  0  0  0  0  0  0  0  0  0
    4.3246   -2.2777    3.0598 H   0  0  0  0  0  0  0  0  0  0  0  0
    3.0858   -0.2974    2.2567 H   0  0  0  0  0  0  0  0  0  0  0  0
    1.9695   -1.6096    2.6011 H   0  0  0  0  0  0  0  0  0  0  0  0
    4.9860   -3.8625   -0.7159 H   0  0  0  0  0  0  0  0  0  0  0  0
    3.7926   -3.1682   -1.8106 H   0  0  0  0  0  0  0  0  0  0  0  0
    2.6931   -4.6535   -0.1357 H   0  0  0  0  0  0  0  0  0  0  0  0
   -4.5689    0.2711    2.9743 H   0  0  0  0  0  0  0  0  0  0  0  0
   -5.7970   -0.4588    1.8918 H   0  0  0  0  0  0  0  0  0  0  0  0
   -6.0831    1.6349    2.2920 C   0  0  0  0  0  0  0  0  0  0  0  0
    4.3525   -4.3688    1.7042 H   0  0  0  0  0  0  0  0  0  0  0  0
    2.7225   -4.0236    2.2772 H   0  0  0  0  0  0  0  0  0  0  0  0
    1.4437   -2.6907   -0.9817 H   0  0  0  0  0  0  0  0  0  0  0  0
    1.0070   -3.0410    0.6910 H   0  0  0  0  0  0  0  0  0  0  0  0
   -6.6932    1.8205    1.4018 H   0  0  0  0  0  0  0  0  0  0  0  0
   -5.4844    2.5361    2.4611 H   0  0  0  0  0  0  0  0  0  0  0  0
   -6.7452    1.4844    3.1491 H   0  0  0  0  0  0  0  0  0  0  0  0
 42 21  1  0
 34 16  1  0
 31 11  1  0
 32 11  1  0
 17 35  1  6
 49 25  1  0
 21 41  1  0
 21 17  1  0
 21 22  1  0
 11 10  1  0
 11 12  1  0
 16 17  1  0
 16 33  1  0
 16 15  1  0
 17 18  1  0
 30  9  1  0
 22 43  1  6
 10  9  1  0
 10  5  2  0
  9  8  2  0
 25 22  1  0
 25 15  1  0
 25 50  1  0
 29  6  1  0
 22 24  1  0
  5  6  1  0
  5  4  1  0
  6  1  2  0
 15  8  1  1
  8  7  1  0
 15 20  1  0
 12 14  1  0
 12 13  2  0
  4  7  2  0
  4  3  1  0
  1 26  1  0
  1  2  1  0
 14 23  1  0
  3  2  2  0
  3 28  1  0
 18 37  1  0
 18 36  1  0
 18 19  1  0
  2 27  1  0
 51 46  1  0
 24 47  1  0
 24 19  1  0
 24 48  1  0
 45 23  1  0
 20 19  1  0
 20 39  1  0
 20 40  1  0
 19 38  1  1
 23 46  1  0
 23 44  1  0
 46 52  1  0
 46 53  1  0
M  END
>  <_TriposChargeType>  (67) 
GASTEIGER

>  <Activity>  (67) 
4.70

$$$$
1_2C
     RDKit          3D

 30 32  0  0  0  0  0  0  0  0999 V2000
   -1.3400    4.1603    0.7231 C   0  0  0  0  0  0  0  0  0  0  0  0
   -0.0228    4.3748    1.1015 C   0  0  0  0  0  0  0  0  0  0  0  0
    0.8802    3.3096    1.0925 C   0  0  0  0  0  0  0  0  0  0  0  0
    0.5029    2.0282    0.7136 C   0  0  0  0  0  0  0  0  0  0  0  0
   -0.8351    1.7990    0.3269 C   0  0  0  0  0  0  0  0  0  0  0  0
   -1.7449    2.8827    0.3384 C   0  0  0  0  0  0  0  0  0  0  0  0
    1.4347    1.0608    0.7333 N   0  0  0  0  0  0  0  0  0  0  0  0
    1.0989   -0.1975    0.3633 C   0  0  0  0  0  0  0  0  0  0  0  0
   -0.2002   -0.5102   -0.0248 C   0  0  0  0  0  0  0  0  0  0  0  0
   -1.1850    0.4832   -0.0509 C   0  0  0  0  0  0  0  0  0  0  0  0
    2.2776   -1.2288    0.4431 C   0  0  0  0  0  0  0  0  0  0  0  0
    3.7125   -0.7664    0.0488 C   0  0  0  0  0  0  0  0  0  0  0  0
    2.4278   -2.2879   -0.6894 C   0  0  0  0  0  0  0  0  0  0  0  0
    3.9517   -2.1918   -0.4845 C   0  0  0  0  0  0  0  0  0  0  0  0
   -2.0516    4.9817    0.7263 H   0  0  0  0  0  0  0  0  0  0  0  0
    0.3086    5.3644    1.4040 H   0  0  0  0  0  0  0  0  0  0  0  0
    1.9119    3.4831    1.3901 H   0  0  0  0  0  0  0  0  0  0  0  0
   -2.5794    0.1160   -0.4778 C   0  0  0  0  0  0  0  0  0  0  0  0
   -2.7822    2.7398    0.0465 H   0  0  0  0  0  0  0  0  0  0  0  0
   -0.4370   -1.5326   -0.3046 H   0  0  0  0  0  0  0  0  0  0  0  0
    2.2833   -1.7130    1.4329 H   0  0  0  0  0  0  0  0  0  0  0  0
    4.3566   -0.4597    0.8772 H   0  0  0  0  0  0  0  0  0  0  0  0
    3.7451    0.0039   -0.7311 H   0  0  0  0  0  0  0  0  0  0  0  0
    2.0966   -1.9482   -1.6781 H   0  0  0  0  0  0  0  0  0  0  0  0
    1.9866   -3.2672   -0.4850 H   0  0  0  0  0  0  0  0  0  0  0  0
    4.3413   -2.8863    0.2686 H   0  0  0  0  0  0  0  0  0  0  0  0
    4.5600   -2.2666   -1.3890 H   0  0  0  0  0  0  0  0  0  0  0  0
   -2.6560   -0.9465   -0.7328 H   0  0  0  0  0  0  0  0  0  0  0  0
   -2.8688    0.6873   -1.3657 H   0  0  0  0  0  0  0  0  0  0  0  0
   -3.2893    0.3103    0.3326 H   0  0  0  0  0  0  0  0  0  0  0  0
 24 13  1  0
 27 14  1  0
 29 18  1  0
 28 18  1  0
 23 12  1  0
 13 25  1  0
 13 14  1  0
 13 11  1  0
 14 12  1  0
 14 26  1  0
 18 10  1  0
 18 30  1  0
 20  9  1  0
 10  9  1  0
 10  5  2  0
  9  8  2  0
 19  6  1  0
 12 11  1  0
 12 22  1  0
  5  6  1  0
  5  4  1  0
  6  1  2  0
  8 11  1  0
  8  7  1  0
 11 21  1  0
  4  7  2  0
  4  3  1  0
  1 15  1  0
  1  2  1  0
  3  2  2  0
  3 17  1  0
  2 16  1  0
M  END
>  <_TriposChargeType>  (68) 
GASTEIGER

>  <Activity>  (68) 
4.81

$$$$
1_3E
     RDKit          3D

 52 55  0  0  0  0  0  0  0  0999 V2000
   -1.3541    4.1518    0.7188 C   0  0  0  0  0  0  0  0  0  0  0  0
   -0.0409    4.3834    1.0994 C   0  0  0  0  0  0  0  0  0  0  0  0
    0.9027    3.3380    1.1034 C   0  0  0  0  0  0  0  0  0  0  0  0
    0.5217    2.0391    0.7199 C   0  0  0  0  0  0  0  0  0  0  0  0
   -0.8198    1.8011    0.3310 C   0  0  0  0  0  0  0  0  0  0  0  0
   -1.7398    2.8721    0.3380 C   0  0  0  0  0  0  0  0  0  0  0  0
    1.4324    1.0461    0.7278 N   0  0  0  0  0  0  0  0  0  0  0  0
    1.0790   -0.2060    0.3612 C   0  0  0  0  0  0  0  0  0  0  0  0
   -0.2114   -0.5201   -0.0315 C   0  0  0  0  0  0  0  0  0  0  0  0
   -1.1811    0.4856   -0.0512 C   0  0  0  0  0  0  0  0  0  0  0  0
    2.1568   -1.2714    0.3940 C   0  0  0  0  0  0  0  0  0  0  0  0
    2.6944   -1.4672    1.8210 C   0  0  0  0  0  0  0  0  0  0  0  0
    3.2969   -0.9312   -0.5798 C   0  0  0  0  0  0  0  0  0  0  0  0
    3.8039   -2.5162    1.8611 C   0  0  0  0  0  0  0  0  0  0  0  0
    4.9294   -2.1824    0.8863 C   0  0  0  0  0  0  0  0  0  0  0  0
    4.4048   -1.9815   -0.5324 C   0  0  0  0  0  0  0  0  0  0  0  0
   -2.0756    4.9643    0.7185 H   0  0  0  0  0  0  0  0  0  0  0  0
   -2.5795    0.1300   -0.4801 C   0  0  0  0  0  0  0  0  0  0  0  0
    0.2483    5.3890    1.3958 H   0  0  0  0  0  0  0  0  0  0  0  0
    2.3425    3.6265    1.5290 C   0  0  0  0  0  0  0  0  0  0  0  0
   -2.7752    2.7195    0.0447 H   0  0  0  0  0  0  0  0  0  0  0  0
   -0.4623   -1.5362   -0.3198 H   0  0  0  0  0  0  0  0  0  0  0  0
    1.7172   -2.2253    0.0706 H   0  0  0  0  0  0  0  0  0  0  0  0
    1.8812   -1.7724    2.4911 H   0  0  0  0  0  0  0  0  0  0  0  0
    3.0856   -0.5205    2.2167 H   0  0  0  0  0  0  0  0  0  0  0  0
    3.7268    0.0502   -0.3391 H   0  0  0  0  0  0  0  0  0  0  0  0
    2.9086   -0.8583   -1.6033 H   0  0  0  0  0  0  0  0  0  0  0  0
    3.3855   -3.4995    1.6134 H   0  0  0  0  0  0  0  0  0  0  0  0
    4.2064   -2.5876    2.8779 H   0  0  0  0  0  0  0  0  0  0  0  0
    5.6738   -2.9866    0.8935 H   0  0  0  0  0  0  0  0  0  0  0  0
    5.4407   -1.2704    1.2184 H   0  0  0  0  0  0  0  0  0  0  0  0
    4.0214   -2.9339   -0.9185 H   0  0  0  0  0  0  0  0  0  0  0  0
    5.2275   -1.6786   -1.1899 H   0  0  0  0  0  0  0  0  0  0  0  0
   -2.8633    0.7041   -1.3680 H   0  0  0  0  0  0  0  0  0  0  0  0
   -3.2886    0.3279    0.3301 H   0  0  0  0  0  0  0  0  0  0  0  0
   -2.6651   -0.9315   -0.7368 H   0  0  0  0  0  0  0  0  0  0  0  0
    3.0256    4.6394    0.5915 C   0  0  0  0  0  0  0  0  0  0  0  0
    4.4662    4.9125    1.0214 C   0  0  0  0  0  0  0  0  0  0  0  0
    4.5435    5.3637    2.4771 C   0  0  0  0  0  0  0  0  0  0  0  0
    3.8664    4.3671    3.4136 C   0  0  0  0  0  0  0  0  0  0  0  0
    2.4230    4.0908    2.9950 C   0  0  0  0  0  0  0  0  0  0  0  0
    2.9321    2.7030    1.4655 H   0  0  0  0  0  0  0  0  0  0  0  0
    2.4769    5.5893    0.5781 H   0  0  0  0  0  0  0  0  0  0  0  0
    3.0200    4.2604   -0.4380 H   0  0  0  0  0  0  0  0  0  0  0  0
    4.9039    5.6807    0.3739 H   0  0  0  0  0  0  0  0  0  0  0  0
    5.0656    4.0035    0.8881 H   0  0  0  0  0  0  0  0  0  0  0  0
    4.0638    6.3448    2.5806 H   0  0  0  0  0  0  0  0  0  0  0  0
    5.5924    5.4887    2.7686 H   0  0  0  0  0  0  0  0  0  0  0  0
    3.8845    4.7540    4.4387 H   0  0  0  0  0  0  0  0  0  0  0  0
    4.4317    3.4269    3.4173 H   0  0  0  0  0  0  0  0  0  0  0  0
    1.8320    5.0024    3.1476 H   0  0  0  0  0  0  0  0  0  0  0  0
    1.9943    3.3261    3.6547 H   0  0  0  0  0  0  0  0  0  0  0  0
 27 13  1  0
 34 18  1  0
 33 16  1  0
 32 16  1  0
 36 18  1  0
 13 16  1  0
 13 26  1  0
 13 11  1  0
 16 15  1  0
 18 10  1  0
 18 35  1  0
 44 37  1  0
 22  9  1  0
 10  9  1  0
 10  5  2  0
  9  8  2  0
 21  6  1  0
 23 11  1  0
  5  6  1  0
  5  4  1  0
  6  1  2  0
  8 11  1  0
  8  7  1  0
 45 38  1  0
 11 12  1  0
 43 37  1  0
 37 38  1  0
 37 20  1  0
 17  1  1  0
  1  2  1  0
  4  7  2  0
  4  3  1  0
 15 30  1  0
 15 31  1  0
 15 14  1  0
 46 38  1  0
 38 39  1  0
  2  3  2  0
  2 19  1  0
  3 20  1  0
 42 20  1  0
 20 41  1  0
 28 14  1  0
 12 14  1  0
 12 25  1  0
 12 24  1  0
 14 29  1  0
 39 47  1  0
 39 48  1  0
 39 40  1  0
 41 51  1  0
 41 40  1  0
 41 52  1  0
 40 50  1  0
 40 49  1  0
M  END
>  <_TriposChargeType>  (69) 
GASTEIGER

>  <Activity>  (69) 
4.74

$$$$
3_14B
     RDKit          3D

 52 55  0  0  0  0  0  0  0  0999 V2000
   -1.3481    4.1559    0.7148 C   0  0  0  0  0  0  0  0  0  0  0  0
   -0.0329    4.3850    1.0897 C   0  0  0  0  0  0  0  0  0  0  0  0
    0.8990    3.3322    1.1170 C   0  0  0  0  0  0  0  0  0  0  0  0
    0.5139    2.0377    0.7228 C   0  0  0  0  0  0  0  0  0  0  0  0
   -0.8275    1.7988    0.3335 C   0  0  0  0  0  0  0  0  0  0  0  0
   -1.7435    2.8749    0.3463 C   0  0  0  0  0  0  0  0  0  0  0  0
    1.4316    1.0525    0.7169 N   0  0  0  0  0  0  0  0  0  0  0  0
    1.0822   -0.2039    0.3649 C   0  0  0  0  0  0  0  0  0  0  0  0
   -0.2056   -0.5229   -0.0300 C   0  0  0  0  0  0  0  0  0  0  0  0
   -1.1804    0.4809   -0.0588 C   0  0  0  0  0  0  0  0  0  0  0  0
   -2.5805    0.1031   -0.4964 C   0  0  0  0  0  0  0  0  0  0  0  0
   -3.5487   -0.0768    0.6529 C   0  0  0  0  0  0  0  0  0  0  0  0
   -3.2564   -0.4266    1.7877 O   0  0  0  0  0  0  0  0  0  0  0  0
   -4.8212    0.1636    0.2180 O   0  0  0  0  0  0  0  0  0  0  0  0
    2.1657   -1.2600    0.3800 C   0  0  0  0  0  0  0  0  0  0  0  0
    3.1726   -1.0481   -0.7666 C   0  0  0  0  0  0  0  0  0  0  0  0
    4.5520   -1.1469   -0.1271 C   0  0  0  0  0  0  0  0  0  0  0  0
    4.3341   -0.6244    1.2814 C   0  0  0  0  0  0  0  0  0  0  0  0
    3.0005   -1.2449    1.6739 C   0  0  0  0  0  0  0  0  0  0  0  0
    2.3451    3.5952    1.5206 C   0  0  0  0  0  0  0  0  0  0  0  0
    3.1723    4.0995    0.3230 C   0  0  0  0  0  0  0  0  0  0  0  0
    4.1203    5.1383    0.9033 C   0  0  0  0  0  0  0  0  0  0  0  0
   -5.8187   -0.0007    1.2273 C   0  0  0  0  0  0  0  0  0  0  0  0
    3.2852    5.8038    1.9829 C   0  0  0  0  0  0  0  0  0  0  0  0
    2.5665    4.6338    2.6426 C   0  0  0  0  0  0  0  0  0  0  0  0
   -2.0641    4.9736    0.7066 H   0  0  0  0  0  0  0  0  0  0  0  0
    0.2626    5.3961    1.3574 H   0  0  0  0  0  0  0  0  0  0  0  0
   -2.7827    2.7353    0.0621 H   0  0  0  0  0  0  0  0  0  0  0  0
   -0.4508   -1.5428   -0.3112 H   0  0  0  0  0  0  0  0  0  0  0  0
   -2.5639   -0.8387   -1.0587 H   0  0  0  0  0  0  0  0  0  0  0  0
   -2.9577    0.8633   -1.1902 H   0  0  0  0  0  0  0  0  0  0  0  0
    1.7019   -2.2504    0.2861 H   0  0  0  0  0  0  0  0  0  0  0  0
    3.0567   -0.0647   -1.2388 H   0  0  0  0  0  0  0  0  0  0  0  0
    3.0475   -1.7986   -1.5546 H   0  0  0  0  0  0  0  0  0  0  0  0
    5.3045   -0.5717   -0.6741 H   0  0  0  0  0  0  0  0  0  0  0  0
    4.8781   -2.1933   -0.0968 H   0  0  0  0  0  0  0  0  0  0  0  0
    4.2624    0.4693    1.2768 H   0  0  0  0  0  0  0  0  0  0  0  0
    5.1409   -0.9125    1.9612 H   0  0  0  0  0  0  0  0  0  0  0  0
    2.5283   -0.7160    2.5081 H   0  0  0  0  0  0  0  0  0  0  0  0
    3.1735   -2.2786    2.0002 H   0  0  0  0  0  0  0  0  0  0  0  0
    2.7884    2.6627    1.8934 H   0  0  0  0  0  0  0  0  0  0  0  0
    2.5372    4.5721   -0.4370 H   0  0  0  0  0  0  0  0  0  0  0  0
    3.7141    3.2844   -0.1685 H   0  0  0  0  0  0  0  0  0  0  0  0
    4.4699    5.8488    0.1489 H   0  0  0  0  0  0  0  0  0  0  0  0
    4.9954    4.6479    1.3458 H   0  0  0  0  0  0  0  0  0  0  0  0
   -5.8342   -1.0347    1.5856 H   0  0  0  0  0  0  0  0  0  0  0  0
   -6.7913    0.2259    0.7818 H   0  0  0  0  0  0  0  0  0  0  0  0
   -5.6462    0.6953    2.0542 H   0  0  0  0  0  0  0  0  0  0  0  0
    2.5601    6.4917    1.5331 H   0  0  0  0  0  0  0  0  0  0  0  0
    3.8965    6.3677    2.6932 H   0  0  0  0  0  0  0  0  0  0  0  0
    1.6591    4.9452    3.1681 H   0  0  0  0  0  0  0  0  0  0  0  0
    3.2311    4.1979    3.4004 H   0  0  0  0  0  0  0  0  0  0  0  0
 34 16  1  0
 33 16  1  0
 31 11  1  0
 30 11  1  0
 16 17  1  0
 16 15  1  0
 35 17  1  0
 11 10  1  0
 11 12  1  0
 42 21  1  0
 29  9  1  0
 43 21  1  0
 17 36  1  0
 17 18  1  0
 10  9  1  0
 10  5  2  0
  9  8  2  0
 28  6  1  0
 44 22  1  0
 14 12  1  0
 14 23  1  0
 32 15  1  0
 21 22  1  0
 21 20  1  0
  5  6  1  0
  5  4  1  0
  6  1  2  0
  8 15  1  0
  8  7  1  0
 15 19  1  0
 12 13  2  0
 26  1  1  0
  1  2  1  0
  7  4  2  0
  4  3  1  0
 47 23  1  0
 22 45  1  0
 22 24  1  0
  2  3  2  0
  2 27  1  0
  3 20  1  0
 23 46  1  0
 23 48  1  0
 37 18  1  0
 18 19  1  0
 18 38  1  0
 20 41  1  0
 20 25  1  0
 49 24  1  0
 19 40  1  0
 19 39  1  0
 24 25  1  0
 24 50  1  0
 25 51  1  0
 25 52  1  0
M  END
>  <_TriposChargeType>  (70) 
GASTEIGER

>  <Activity>  (70) 
3.22

$$$$
2_7B
     RDKit          3D

 36 38  0  0  0  0  0  0  0  0999 V2000
   -1.3461    4.1654    0.7321 C   0  0  0  0  0  0  0  0  0  0  0  0
   -0.0283    4.3758    1.1165 C   0  0  0  0  0  0  0  0  0  0  0  0
    0.8983    3.3305    1.0789 C   0  0  0  0  0  0  0  0  0  0  0  0
    0.5072    2.0300    0.7155 C   0  0  0  0  0  0  0  0  0  0  0  0
   -0.8334    1.7921    0.3201 C   0  0  0  0  0  0  0  0  0  0  0  0
   -1.7388    2.8869    0.3354 C   0  0  0  0  0  0  0  0  0  0  0  0
    1.4430    1.0581    0.7325 N   0  0  0  0  0  0  0  0  0  0  0  0
    1.0774   -0.1840    0.3743 C   0  0  0  0  0  0  0  0  0  0  0  0
   -0.1994   -0.5254   -0.0245 C   0  0  0  0  0  0  0  0  0  0  0  0
   -1.1912    0.4616   -0.0638 C   0  0  0  0  0  0  0  0  0  0  0  0
   -2.6013    0.1190   -0.5151 C   0  0  0  0  0  0  0  0  0  0  0  0
   -3.0224   -1.3573   -0.5499 C   0  0  0  0  0  0  0  0  0  0  0  0
   -4.3354   -1.3162   -1.3193 C   0  0  0  0  0  0  0  0  0  0  0  0
    2.2061    3.5615    1.5878 N   0  0  0  0  0  0  0  0  0  0  0  0
    0.2780    5.3610    1.4574 H   0  0  0  0  0  0  0  0  0  0  0  0
   -2.7677    2.7211    0.0401 H   0  0  0  0  0  0  0  0  0  0  0  0
   -2.1449    5.2733    0.7932 O   0  0  0  0  0  0  0  0  0  0  0  0
    1.8675   -0.9284    0.4146 H   0  0  0  0  0  0  0  0  0  0  0  0
   -4.1330   -0.2376   -2.3807 C   0  0  0  0  0  0  0  0  0  0  0  0
   -2.8943    0.5552   -1.9574 C   0  0  0  0  0  0  0  0  0  0  0  0
   -0.3889   -1.5559   -0.2988 H   0  0  0  0  0  0  0  0  0  0  0  0
   -3.3053    0.6138    0.1685 H   0  0  0  0  0  0  0  0  0  0  0  0
   -3.1413   -1.7831    0.4512 H   0  0  0  0  0  0  0  0  0  0  0  0
   -2.3125   -1.9798   -1.1060 H   0  0  0  0  0  0  0  0  0  0  0  0
   -5.1541   -1.0280   -0.6491 H   0  0  0  0  0  0  0  0  0  0  0  0
   -4.5894   -2.2859   -1.7577 H   0  0  0  0  0  0  0  0  0  0  0  0
    2.8044    2.7753    1.3227 H   0  0  0  0  0  0  0  0  0  0  0  0
    2.5853    4.4638    1.3258 H   0  0  0  0  0  0  0  0  0  0  0  0
   -3.9792   -0.6815   -3.3704 H   0  0  0  0  0  0  0  0  0  0  0  0
   -5.0156    0.4078   -2.4443 H   0  0  0  0  0  0  0  0  0  0  0  0
   -2.0555    0.3025   -2.6189 H   0  0  0  0  0  0  0  0  0  0  0  0
   -3.0614    1.6328   -2.0494 H   0  0  0  0  0  0  0  0  0  0  0  0
   -4.0030    6.0827    0.5440 H   0  0  0  0  0  0  0  0  0  0  0  0
   -4.0142    4.4053    1.1019 H   0  0  0  0  0  0  0  0  0  0  0  0
   -3.6095    4.8056   -0.6132 H   0  0  0  0  0  0  0  0  0  0  0  0
   -3.5109    5.1116    0.4335 C   0  0  0  0  0  0  0  0  0  0  0  0
 29 19  1  0
 31 20  1  0
 30 19  1  0
 19 20  1  0
 19 13  1  0
 32 20  1  0
 20 11  1  0
 26 13  1  0
 13 25  1  0
 13 12  1  0
 24 12  1  0
 35 36  1  0
 12 11  1  0
 12 23  1  0
 11 10  1  0
 11 22  1  0
 21  9  1  0
 10  9  1  0
 10  5  2  0
  9  8  2  0
 16  6  1  0
  5  6  1  0
  5  4  1  0
  6  1  2  0
  8 18  1  0
  8  7  1  0
 36 33  1  0
 36 17  1  0
 36 34  1  0
  4  7  2  0
  4  3  1  0
  1 17  1  0
  1  2  1  0
  3  2  2  0
  3 14  1  0
  2 15  1  0
 27 14  1  0
 28 14  1  0
M  END
>  <_TriposChargeType>  (71) 
GASTEIGER

>  <Activity>  (71) 
4.09

$$$$
3_11D
     RDKit          3D

 55 58  0  0  0  0  0  0  0  0999 V2000
   -1.3526    4.1633    0.7171 C   0  0  0  0  0  0  0  0  0  0  0  0
   -0.0402    4.3873    1.1001 C   0  0  0  0  0  0  0  0  0  0  0  0
    0.8986    3.3369    1.1058 C   0  0  0  0  0  0  0  0  0  0  0  0
    0.5124    2.0384    0.7212 C   0  0  0  0  0  0  0  0  0  0  0  0
   -0.8268    1.8045    0.3362 C   0  0  0  0  0  0  0  0  0  0  0  0
   -1.7421    2.8855    0.3369 C   0  0  0  0  0  0  0  0  0  0  0  0
    1.4197    1.0412    0.7216 N   0  0  0  0  0  0  0  0  0  0  0  0
    1.0820   -0.2142    0.3541 C   0  0  0  0  0  0  0  0  0  0  0  0
   -0.2021   -0.5338   -0.0316 C   0  0  0  0  0  0  0  0  0  0  0  0
   -1.1601    0.4818   -0.0446 C   0  0  0  0  0  0  0  0  0  0  0  0
   -2.5411    0.1108   -0.4389 C   0  0  0  0  0  0  0  0  0  0  0  0
   -3.5522    0.4653    0.1417 O   0  0  0  0  0  0  0  0  0  0  0  0
   -2.4865   -0.6669   -1.5511 O   0  0  0  0  0  0  0  0  0  0  0  0
    2.1607   -1.2778    0.4114 C   0  0  0  0  0  0  0  0  0  0  0  0
    2.5463   -1.5829    1.8676 C   0  0  0  0  0  0  0  0  0  0  0  0
    3.6501   -2.6358    1.9462 C   0  0  0  0  0  0  0  0  0  0  0  0
    4.8697   -2.2367    1.1207 C   0  0  0  0  0  0  0  0  0  0  0  0
    4.4942   -1.9306   -0.3263 C   0  0  0  0  0  0  0  0  0  0  0  0
    3.3968   -0.8715   -0.4083 C   0  0  0  0  0  0  0  0  0  0  0  0
   -3.7676   -1.0684   -2.0385 C   0  0  0  0  0  0  0  0  0  0  0  0
    2.3262    3.6800    1.5351 C   0  0  0  0  0  0  0  0  0  0  0  0
    3.3436    3.5237    0.3903 C   0  0  0  0  0  0  0  0  0  0  0  0
    4.7528    3.9128    0.8345 C   0  0  0  0  0  0  0  0  0  0  0  0
    5.1815    3.1484    2.0833 C   0  0  0  0  0  0  0  0  0  0  0  0
    4.1857    3.3354    3.2241 C   0  0  0  0  0  0  0  0  0  0  0  0
    2.7716    2.9345    2.8067 C   0  0  0  0  0  0  0  0  0  0  0  0
   -2.0718    4.9782    0.7152 H   0  0  0  0  0  0  0  0  0  0  0  0
    0.2537    5.3924    1.3961 H   0  0  0  0  0  0  0  0  0  0  0  0
   -2.7798    2.7436    0.0414 H   0  0  0  0  0  0  0  0  0  0  0  0
   -0.4618   -1.5507   -0.3074 H   0  0  0  0  0  0  0  0  0  0  0  0
    1.7631   -2.2015   -0.0324 H   0  0  0  0  0  0  0  0  0  0  0  0
    1.6690   -1.9348    2.4245 H   0  0  0  0  0  0  0  0  0  0  0  0
    2.8888   -0.6696    2.3711 H   0  0  0  0  0  0  0  0  0  0  0  0
    3.9447   -2.7826    2.9914 H   0  0  0  0  0  0  0  0  0  0  0  0
    3.2634   -3.5968    1.5853 H   0  0  0  0  0  0  0  0  0  0  0  0
    5.3406   -1.3534    1.5698 H   0  0  0  0  0  0  0  0  0  0  0  0
    5.6120   -3.0424    1.1464 H   0  0  0  0  0  0  0  0  0  0  0  0
    5.3800   -1.5858   -0.8715 H   0  0  0  0  0  0  0  0  0  0  0  0
    4.1532   -2.8496   -0.8185 H   0  0  0  0  0  0  0  0  0  0  0  0
    3.8015    0.0820   -0.0461 H   0  0  0  0  0  0  0  0  0  0  0  0
    3.1182   -0.7147   -1.4577 H   0  0  0  0  0  0  0  0  0  0  0  0
   -4.2907   -1.6711   -1.2894 H   0  0  0  0  0  0  0  0  0  0  0  0
   -3.6136   -1.6819   -2.9305 H   0  0  0  0  0  0  0  0  0  0  0  0
   -4.3630   -0.1935   -2.3180 H   0  0  0  0  0  0  0  0  0  0  0  0
    2.3376    4.7480    1.7999 H   0  0  0  0  0  0  0  0  0  0  0  0
    3.0475    4.1489   -0.4613 H   0  0  0  0  0  0  0  0  0  0  0  0
    3.3692    2.4935    0.0211 H   0  0  0  0  0  0  0  0  0  0  0  0
    5.4612    3.7176    0.0214 H   0  0  0  0  0  0  0  0  0  0  0  0
    4.7875    4.9906    1.0357 H   0  0  0  0  0  0  0  0  0  0  0  0
    5.2706    2.0808    1.8465 H   0  0  0  0  0  0  0  0  0  0  0  0
    6.1731    3.4898    2.4011 H   0  0  0  0  0  0  0  0  0  0  0  0
    4.4975    2.7368    4.0874 H   0  0  0  0  0  0  0  0  0  0  0  0
    4.1890    4.3843    3.5451 H   0  0  0  0  0  0  0  0  0  0  0  0
    2.7526    1.8499    2.6603 H   0  0  0  0  0  0  0  0  0  0  0  0
    2.0765    3.1481    3.6282 H   0  0  0  0  0  0  0  0  0  0  0  0
 43 20  1  0
 44 20  1  0
 20 13  1  0
 20 42  1  0
 13 11  1  0
 41 19  1  0
 38 18  1  0
 39 18  1  0
 46 22  1  0
 11 10  1  0
 11 12  2  0
 19 18  1  0
 19 40  1  0
 19 14  1  0
 18 17  1  0
 30  9  1  0
 10  9  1  0
 10  5  2  0
 31 14  1  0
  9  8  2  0
 47 22  1  0
 48 23  1  0
 29  6  1  0
  5  6  1  0
  5  4  1  0
  6  1  2  0
  8 14  1  0
  8  7  1  0
 22 23  1  0
 22 21  1  0
 14 15  1  0
 27  1  1  0
  1  2  1  0
  4  7  2  0
  4  3  1  0
 23 49  1  0
 23 24  1  0
  2  3  2  0
  2 28  1  0
  3 21  1  0
 17 37  1  0
 17 36  1  0
 17 16  1  0
 21 45  1  0
 21 26  1  0
 35 16  1  0
 50 24  1  0
 15 16  1  0
 15 33  1  0
 15 32  1  0
 16 34  1  0
 24 51  1  0
 24 25  1  0
 54 26  1  0
 26 25  1  0
 26 55  1  0
 25 53  1  0
 25 52  1  0
M  END
>  <_TriposChargeType>  (72) 
GASTEIGER

>  <Activity>  (72) 
4.65

$$$$
