CCR5_17
     RDKit          3D

 75 78  0  0  0  0  0  0  0  0999 V2000
   -3.9984    1.4308   -1.5055 C   0  0  0  0  0  0  0  0  0  0  0  0
   -4.4356    2.6807   -0.7103 C   0  0  0  0  0  0  0  0  0  0  0  0
   -5.7813    3.0631   -0.7911 C   0  0  0  0  0  0  0  0  0  0  0  0
   -6.2679    4.1524   -0.0630 C   0  0  0  0  0  0  0  0  0  0  0  0
   -5.4031    4.8910    0.7473 C   0  0  0  0  0  0  0  0  0  0  0  0
   -4.0524    4.5415    0.8107 C   0  0  0  0  0  0  0  0  0  0  0  0
   -3.5699    3.4535    0.0769 C   0  0  0  0  0  0  0  0  0  0  0  0
   -4.9757    0.2591   -1.2974 C   0  0  0  0  0  0  0  0  0  0  0  0
   -5.5934    0.0467   -0.0585 C   0  0  0  0  0  0  0  0  0  0  0  0
   -6.4851   -1.0154    0.1168 C   0  0  0  0  0  0  0  0  0  0  0  0
   -6.7639   -1.8783   -0.9461 C   0  0  0  0  0  0  0  0  0  0  0  0
   -6.1468   -1.6768   -2.1834 C   0  0  0  0  0  0  0  0  0  0  0  0
   -5.2555   -0.6138   -2.3557 C   0  0  0  0  0  0  0  0  0  0  0  0
   -2.5509    0.9068   -1.2701 C   0  0  0  0  0  0  0  0  0  0  0  0
   -2.3408    0.2914    0.1426 C   0  0  0  0  0  0  0  0  0  0  0  0
   -0.9004    0.1885    0.5024 N   0  0  2  0  0  4  0  0  0  0  0  0
   -0.1224   -0.7745   -0.3178 C   0  0  0  0  0  0  0  0  0  0  0  0
    1.3919   -0.6808   -0.0022 C   0  0  0  0  0  0  0  0  0  0  0  0
    1.6552   -0.9146    1.5048 C   0  0  2  0  0  0  0  0  0  0  0  0
    0.8262    0.1231    2.3053 C   0  0  0  0  0  0  0  0  0  0  0  0
   -0.6786   -0.0059    1.9585 C   0  0  0  0  0  0  0  0  0  0  0  0
    3.1071   -0.8697    1.7454 N   0  0  0  0  0  0  0  0  0  0  0  0
    3.7706    0.3649    2.1861 C   0  0  0  0  0  0  0  0  0  0  0  0
    5.6374    0.3667   -2.6846 O   0  0  0  0  0  0  0  0  0  0  0  0
    3.8207   -2.0012    1.4723 C   0  0  0  0  0  0  0  0  0  0  0  0
    3.2612   -3.0121    1.0782 O   0  0  0  0  0  0  0  0  0  0  0  0
    5.3215   -2.1103    1.6161 C   0  0  0  0  0  0  0  0  0  0  0  0
    6.0807   -1.1972    0.6416 C   0  0  0  0  0  0  0  0  0  0  0  0
    7.3274   -0.6722    1.0009 C   0  0  0  0  0  0  0  0  0  0  0  0
    8.0094    0.1878    0.1362 C   0  0  0  0  0  0  0  0  0  0  0  0
    7.4471    0.5314   -1.0948 C   0  0  0  0  0  0  0  0  0  0  0  0
    6.2063    0.0071   -1.4629 C   0  0  0  0  0  0  0  0  0  0  0  0
    5.5400   -0.8764   -0.6091 C   0  0  0  0  0  0  0  0  0  0  0  0
    4.5431    1.2909   -2.5739 C   0  0  0  0  0  0  0  0  0  0  0  0
    9.2525    0.7028    0.5013 O   0  0  0  0  0  0  0  0  0  0  0  0
    9.1749    1.8914    1.3033 C   0  0  0  0  0  0  0  0  0  0  0  0
   -4.0132    1.7929   -2.5123 H   0  0  0  0  0  0  0  0  0  0  0  0
   -6.4241    2.5313   -1.3986 H   0  0  0  0  0  0  0  0  0  0  0  0
   -7.2652    4.4106   -0.1242 H   0  0  0  0  0  0  0  0  0  0  0  0
   -5.7595    5.6895    1.2954 H   0  0  0  0  0  0  0  0  0  0  0  0
   -3.4075    5.0888    1.4019 H   0  0  0  0  0  0  0  0  0  0  0  0
   -2.5662    3.2167    0.1150 H   0  0  0  0  0  0  0  0  0  0  0  0
   -5.3887    0.6791    0.7309 H   0  0  0  0  0  0  0  0  0  0  0  0
   -6.9380   -1.1623    1.0324 H   0  0  0  0  0  0  0  0  0  0  0  0
   -7.4233   -2.6617   -0.8178 H   0  0  0  0  0  0  0  0  0  0  0  0
   -6.3491   -2.3130   -2.9704 H   0  0  0  0  0  0  0  0  0  0  0  0
   -4.7999   -0.4712   -3.2707 H   0  0  0  0  0  0  0  0  0  0  0  0
   -1.8522    1.7028   -1.4221 H   0  0  0  0  0  0  0  0  0  0  0  0
   -2.3885    0.1201   -1.9769 H   0  0  0  0  0  0  0  0  0  0  0  0
   -2.7952   -0.6763    0.1873 H   0  0  0  0  0  0  0  0  0  0  0  0
   -2.8034    0.9464    0.8510 H   0  0  0  0  0  0  0  0  0  0  0  0
   -0.5204    1.1042    0.2625 H   0  0  0  0  0  0  0  0  0  0  0  0
   -0.2911   -0.5885   -1.3579 H   0  0  0  0  0  0  0  0  0  0  0  0
   -0.4534   -1.7628   -0.0758 H   0  0  0  0  0  0  0  0  0  0  0  0
    1.9325   -1.3978   -0.5841 H   0  0  0  0  0  0  0  0  0  0  0  0
    1.7287    0.3029   -0.2547 H   0  0  0  0  0  0  0  0  0  0  0  0
    1.3360   -1.8798    1.8385 H   0  0  0  0  0  0  0  0  0  0  0  0
    0.9751   -0.0184    3.3554 H   0  0  0  0  0  0  0  0  0  0  0  0
    1.1563    1.1050    2.0374 H   0  0  0  0  0  0  0  0  0  0  0  0
   -1.0435   -0.9654    2.2602 H   0  0  0  0  0  0  0  0  0  0  0  0
   -1.2142    0.7548    2.4871 H   0  0  0  0  0  0  0  0  0  0  0  0
    3.0370    1.1274    2.3451 H   0  0  0  0  0  0  0  0  0  0  0  0
    4.4836    0.6836    1.4547 H   0  0  0  0  0  0  0  0  0  0  0  0
    4.2881    0.1778    3.1038 H   0  0  0  0  0  0  0  0  0  0  0  0
    5.6247   -3.1258    1.4687 H   0  0  0  0  0  0  0  0  0  0  0  0
    5.5673   -1.7878    2.6063 H   0  0  0  0  0  0  0  0  0  0  0  0
    7.7458   -0.9220    1.9106 H   0  0  0  0  0  0  0  0  0  0  0  0
    7.9474    1.1715   -1.7312 H   0  0  0  0  0  0  0  0  0  0  0  0
    4.6435   -1.2950   -0.9027 H   0  0  0  0  0  0  0  0  0  0  0  0
    4.1646    1.5148   -3.5494 H   0  0  0  0  0  0  0  0  0  0  0  0
    4.8635    2.1877   -2.0861 H   0  0  0  0  0  0  0  0  0  0  0  0
    3.7655    0.8468   -1.9883 H   0  0  0  0  0  0  0  0  0  0  0  0
   10.1627    2.2258    1.5428 H   0  0  0  0  0  0  0  0  0  0  0  0
    8.6217    1.6987    2.1987 H   0  0  0  0  0  0  0  0  0  0  0  0
    8.6690    2.6558    0.7513 H   0  0  0  0  0  0  0  0  0  0  0  0
  1  2  1  0
  2  3  2  0
  2  7  1  0
  7  6  2  0
  6  5  1  0
  5  4  2  0
  4  3  1  0
  8  9  2  0
  8 13  1  0
 13 12  2  0
 12 11  1  0
 11 10  2  0
 10  9  1  0
  1  8  1  0
  1 14  1  0
 14 15  1  0
 16 17  1  0
 16 21  1  0
 21 20  1  0
 20 19  1  0
 19 18  1  0
 18 17  1  0
 15 16  1  0
 19 22  1  0
 22 23  1  0
 32 24  1  0
 22 25  1  0
 25 26  2  0
 25 27  1  0
 28 29  2  0
 33 28  1  0
 33 32  2  0
 32 31  1  0
 31 30  2  0
 30 29  1  0
 27 28  1  0
 24 34  1  0
 30 35  1  0
 35 36  1  0
  1 37  1  0
  3 38  1  0
  4 39  1  0
  5 40  1  0
  6 41  1  0
  7 42  1  0
  9 43  1  0
 10 44  1  0
 11 45  1  0
 12 46  1  0
 13 47  1  0
 14 48  1  0
 14 49  1  0
 15 50  1  0
 15 51  1  0
 16 52  1  6
 17 53  1  0
 17 54  1  0
 18 55  1  0
 18 56  1  0
 19 57  1  1
 20 58  1  0
 20 59  1  0
 21 60  1  0
 21 61  1  0
 23 62  1  0
 23 63  1  0
 23 64  1  0
 27 65  1  0
 27 66  1  0
 29 67  1  0
 31 68  1  0
 33 69  1  0
 34 70  1  0
 34 71  1  0
 34 72  1  0
 36 73  1  0
 36 74  1  0
 36 75  1  0
M  CHG  1  16   1
M  END
>  <_TriposChargeType>  (1) 
GASTEIGER

>  <Activity>  (1) 
5.57

$$$$
CCR5_15
     RDKit          3D

 71 74  0  0  0  0  0  0  0  0999 V2000
   -3.9952    1.4326   -1.5049 C   0  0  0  0  0  0  0  0  0  0  0  0
   -4.4350    2.6808   -0.7084 C   0  0  0  0  0  0  0  0  0  0  0  0
   -5.7791    3.0665   -0.7980 C   0  0  0  0  0  0  0  0  0  0  0  0
   -6.2689    4.1543   -0.0700 C   0  0  0  0  0  0  0  0  0  0  0  0
   -5.4088    4.8880    0.7497 C   0  0  0  0  0  0  0  0  0  0  0  0
   -4.0593    4.5352    0.8224 C   0  0  0  0  0  0  0  0  0  0  0  0
   -3.5736    3.4486    0.0884 C   0  0  0  0  0  0  0  0  0  0  0  0
   -4.9718    0.2598   -1.3008 C   0  0  0  0  0  0  0  0  0  0  0  0
   -5.5964    0.0477   -0.0652 C   0  0  0  0  0  0  0  0  0  0  0  0
   -6.4839   -1.0183    0.1074 C   0  0  0  0  0  0  0  0  0  0  0  0
   -6.7526   -1.8848   -0.9552 C   0  0  0  0  0  0  0  0  0  0  0  0
   -6.1304   -1.6822   -2.1897 C   0  0  0  0  0  0  0  0  0  0  0  0
   -5.2433   -0.6153   -2.3594 C   0  0  0  0  0  0  0  0  0  0  0  0
   -2.5488    0.9078   -1.2648 C   0  0  0  0  0  0  0  0  0  0  0  0
   -2.3478    0.2849    0.1459 C   0  0  0  0  0  0  0  0  0  0  0  0
   -0.9088    0.1844    0.5106 N   0  0  2  0  0  4  0  0  0  0  0  0
   -0.1297   -0.7927   -0.2913 C   0  0  0  0  0  0  0  0  0  0  0  0
    1.3856   -0.6971    0.0214 C   0  0  0  0  0  0  0  0  0  0  0  0
    1.6529   -0.8928    1.5348 C   0  0  2  0  0  0  0  0  0  0  0  0
    0.8215    0.1705    2.2992 C   0  0  0  0  0  0  0  0  0  0  0  0
   -0.6844    0.0189    1.9694 C   0  0  0  0  0  0  0  0  0  0  0  0
    3.1103   -0.8713    1.7524 N   0  0  0  0  0  0  0  0  0  0  0  0
    3.8312    0.3417    2.1627 C   0  0  0  0  0  0  0  0  0  0  0  0
    7.3069    2.0352   -2.0452 O   0  0  0  0  0  0  0  0  0  0  0  0
    3.8031   -1.9985    1.4148 C   0  0  0  0  0  0  0  0  0  0  0  0
    3.2238   -3.0180    1.0751 O   0  0  0  0  0  0  0  0  0  0  0  0
    5.3127   -2.0755    1.4123 C   0  0  0  0  0  0  0  0  0  0  0  0
    5.8962   -1.0060    0.4792 C   0  0  0  0  0  0  0  0  0  0  0  0
    6.9308   -0.1624    0.9009 C   0  0  0  0  0  0  0  0  0  0  0  0
    7.4024    0.8471    0.0565 C   0  0  0  0  0  0  0  0  0  0  0  0
    6.8545    1.0078   -1.2181 C   0  0  0  0  0  0  0  0  0  0  0  0
    5.8557    0.1373   -1.6608 C   0  0  0  0  0  0  0  0  0  0  0  0
    5.3795   -0.8673   -0.8140 C   0  0  0  0  0  0  0  0  0  0  0  0
    6.4314    3.1734   -2.0882 C   0  0  0  0  0  0  0  0  0  0  0  0
   -4.0075    1.7969   -2.5109 H   0  0  0  0  0  0  0  0  0  0  0  0
   -6.4184    2.5382   -1.4122 H   0  0  0  0  0  0  0  0  0  0  0  0
   -7.2651    4.4150   -0.1381 H   0  0  0  0  0  0  0  0  0  0  0  0
   -5.7677    5.6853    1.2979 H   0  0  0  0  0  0  0  0  0  0  0  0
   -3.4177    5.0789    1.4205 H   0  0  0  0  0  0  0  0  0  0  0  0
   -2.5708    3.2092    0.1336 H   0  0  0  0  0  0  0  0  0  0  0  0
   -5.3999    0.6833    0.7237 H   0  0  0  0  0  0  0  0  0  0  0  0
   -6.9412   -1.1655    1.0208 H   0  0  0  0  0  0  0  0  0  0  0  0
   -7.4083   -2.6716   -0.8287 H   0  0  0  0  0  0  0  0  0  0  0  0
   -6.3259   -2.3206   -2.9767 H   0  0  0  0  0  0  0  0  0  0  0  0
   -4.7847   -0.4715   -3.2726 H   0  0  0  0  0  0  0  0  0  0  0  0
   -1.8495    1.7048   -1.4081 H   0  0  0  0  0  0  0  0  0  0  0  0
   -2.3812    0.1256   -1.9754 H   0  0  0  0  0  0  0  0  0  0  0  0
   -2.7998   -0.6843    0.1823 H   0  0  0  0  0  0  0  0  0  0  0  0
   -2.8177    0.9327    0.8562 H   0  0  0  0  0  0  0  0  0  0  0  0
   -0.5303    1.0963    0.2546 H   0  0  0  0  0  0  0  0  0  0  0  0
   -0.2982   -0.6253   -1.3346 H   0  0  0  0  0  0  0  0  0  0  0  0
   -0.4611   -1.7759   -0.0296 H   0  0  0  0  0  0  0  0  0  0  0  0
    1.9226   -1.4307   -0.5429 H   0  0  0  0  0  0  0  0  0  0  0  0
    1.7244    0.2793   -0.2556 H   0  0  0  0  0  0  0  0  0  0  0  0
    1.3321   -1.8382    1.9197 H   0  0  0  0  0  0  0  0  0  0  0  0
    0.9787    0.0721    3.3530 H   0  0  0  0  0  0  0  0  0  0  0  0
    1.1428    1.1429    1.9891 H   0  0  0  0  0  0  0  0  0  0  0  0
   -1.0370   -0.9391    2.2899 H   0  0  0  0  0  0  0  0  0  0  0  0
   -1.2289    0.7789    2.4898 H   0  0  0  0  0  0  0  0  0  0  0  0
    3.1280    1.1163    2.3874 H   0  0  0  0  0  0  0  0  0  0  0  0
    4.4955    0.6584    1.3860 H   0  0  0  0  0  0  0  0  0  0  0  0
    4.4103    0.1280    3.0367 H   0  0  0  0  0  0  0  0  0  0  0  0
    5.6313   -3.0486    1.1018 H   0  0  0  0  0  0  0  0  0  0  0  0
    5.6680   -1.8965    2.4056 H   0  0  0  0  0  0  0  0  0  0  0  0
    7.3464   -0.2860    1.8374 H   0  0  0  0  0  0  0  0  0  0  0  0
    8.1569    1.4748    0.3756 H   0  0  0  0  0  0  0  0  0  0  0  0
    5.4696    0.2360   -2.6128 H   0  0  0  0  0  0  0  0  0  0  0  0
    4.6429   -1.5103   -1.1441 H   0  0  0  0  0  0  0  0  0  0  0  0
    6.8427    3.9160   -2.7395 H   0  0  0  0  0  0  0  0  0  0  0  0
    6.2979    3.5754   -1.1056 H   0  0  0  0  0  0  0  0  0  0  0  0
    5.4761    2.8684   -2.4614 H   0  0  0  0  0  0  0  0  0  0  0  0
  1  2  1  0
  2  3  2  0
  2  7  1  0
  7  6  2  0
  6  5  1  0
  5  4  2  0
  4  3  1  0
  8  9  2  0
  8 13  1  0
 13 12  2  0
 12 11  1  0
 11 10  2  0
 10  9  1  0
  1  8  1  0
  1 14  1  0
 14 15  1  0
 16 17  1  0
 16 21  1  0
 21 20  1  0
 20 19  1  0
 19 18  1  0
 18 17  1  0
 15 16  1  0
 19 22  1  0
 22 23  1  0
 31 24  1  0
 22 25  1  0
 25 26  2  0
 25 27  1  0
 28 29  2  0
 33 28  1  0
 32 33  2  0
 32 31  1  0
 31 30  2  0
 30 29  1  0
 27 28  1  0
 24 34  1  0
  1 35  1  0
  3 36  1  0
  4 37  1  0
  5 38  1  0
  6 39  1  0
  7 40  1  0
  9 41  1  0
 10 42  1  0
 11 43  1  0
 12 44  1  0
 13 45  1  0
 14 46  1  0
 14 47  1  0
 15 48  1  0
 15 49  1  0
 16 50  1  6
 17 51  1  0
 17 52  1  0
 18 53  1  0
 18 54  1  0
 19 55  1  1
 20 56  1  0
 20 57  1  0
 21 58  1  0
 21 59  1  0
 23 60  1  0
 23 61  1  0
 23 62  1  0
 27 63  1  0
 27 64  1  0
 29 65  1  0
 30 66  1  0
 32 67  1  0
 33 68  1  0
 34 69  1  0
 34 70  1  0
 34 71  1  0
M  CHG  1  16   1
M  END
>  <_TriposChargeType>  (2) 
GASTEIGER

>  <Activity>  (2) 
6.24

$$$$
CCR5_26
     RDKit          3D

 72 75  0  0  0  0  0  0  0  0999 V2000
   -3.9956    1.4271   -1.5049 C   0  0  0  0  0  0  0  0  0  0  0  0
   -4.4241    2.6764   -0.7037 C   0  0  0  0  0  0  0  0  0  0  0  0
   -5.7653    3.0728   -0.7894 C   0  0  0  0  0  0  0  0  0  0  0  0
   -6.2449    4.1626   -0.0576 C   0  0  0  0  0  0  0  0  0  0  0  0
   -5.3773    4.8873    0.7622 C   0  0  0  0  0  0  0  0  0  0  0  0
   -4.0306    4.5234    0.8315 C   0  0  0  0  0  0  0  0  0  0  0  0
   -3.5551    3.4349    0.0937 C   0  0  0  0  0  0  0  0  0  0  0  0
   -4.9808    0.2611   -1.3023 C   0  0  0  0  0  0  0  0  0  0  0  0
   -5.6052    0.0503   -0.0665 C   0  0  0  0  0  0  0  0  0  0  0  0
   -6.5018   -1.0085    0.1039 C   0  0  0  0  0  0  0  0  0  0  0  0
   -6.7793   -1.8694   -0.9610 C   0  0  0  0  0  0  0  0  0  0  0  0
   -6.1566   -1.6686   -2.1956 C   0  0  0  0  0  0  0  0  0  0  0  0
   -5.2605   -0.6088   -2.3631 C   0  0  0  0  0  0  0  0  0  0  0  0
   -2.5525    0.8913   -1.2699 C   0  0  0  0  0  0  0  0  0  0  0  0
   -2.3516    0.2638    0.1389 C   0  0  0  0  0  0  0  0  0  0  0  0
   -0.9124    0.1589    0.5016 N   0  0  2  0  0  4  0  0  0  0  0  0
   -0.1370   -0.8182   -0.3042 C   0  0  0  0  0  0  0  0  0  0  0  0
    1.3788   -0.7111   -0.0005 C   0  0  0  0  0  0  0  0  0  0  0  0
    1.6527   -0.9100    1.5101 C   0  0  2  0  0  0  0  0  0  0  0  0
    0.8185    0.1351    2.2959 C   0  0  0  0  0  0  0  0  0  0  0  0
   -0.6867   -0.0117    1.9598 C   0  0  0  0  0  0  0  0  0  0  0  0
    3.1057   -0.8407    1.7366 N   0  0  0  0  0  0  0  0  0  0  0  0
    3.7546    0.4122    2.1466 C   0  0  0  0  0  0  0  0  0  0  0  0
    8.6362    0.4051   -3.5854 N   0  0  0  0  0  0  0  0  0  0  0  0
    3.8332   -1.9655    1.4733 C   0  0  0  0  0  0  0  0  0  0  0  0
    3.2847   -2.9942    1.1110 O   0  0  0  0  0  0  0  0  0  0  0  0
    5.3381   -2.0450    1.5847 C   0  0  0  0  0  0  0  0  0  0  0  0
    6.0201   -1.1611    0.5300 C   0  0  0  0  0  0  0  0  0  0  0  0
    7.1455   -0.3961    0.8584 C   0  0  0  0  0  0  0  0  0  0  0  0
    7.7412    0.4313   -0.0982 C   0  0  0  0  0  0  0  0  0  0  0  0
    7.2196    0.4962   -1.3932 C   0  0  0  0  0  0  0  0  0  0  0  0
    6.1099   -0.2825   -1.7304 C   0  0  0  0  0  0  0  0  0  0  0  0
    5.5163   -1.1122   -0.7750 C   0  0  0  0  0  0  0  0  0  0  0  0
    7.9674    1.5331   -2.6274 S   0  0  0  0  0  6  0  0  0  0  0  0
    6.9180    2.2027   -3.3696 O   0  0  0  0  0  0  0  0  0  0  0  0
    9.0336    2.3092   -2.0267 O   0  0  0  0  0  0  0  0  0  0  0  0
   -4.0076    1.7941   -2.5099 H   0  0  0  0  0  0  0  0  0  0  0  0
   -6.4101    2.5510   -1.4035 H   0  0  0  0  0  0  0  0  0  0  0  0
   -7.2391    4.4315   -0.1230 H   0  0  0  0  0  0  0  0  0  0  0  0
   -5.7287    5.6862    1.3130 H   0  0  0  0  0  0  0  0  0  0  0  0
   -3.3836    5.0603    1.4299 H   0  0  0  0  0  0  0  0  0  0  0  0
   -2.5542    3.1872    0.1365 H   0  0  0  0  0  0  0  0  0  0  0  0
   -5.4018    0.6814    0.7243 H   0  0  0  0  0  0  0  0  0  0  0  0
   -6.9593   -1.1545    1.0173 H   0  0  0  0  0  0  0  0  0  0  0  0
   -7.4418   -2.6508   -0.8361 H   0  0  0  0  0  0  0  0  0  0  0  0
   -6.3583   -2.3030   -2.9842 H   0  0  0  0  0  0  0  0  0  0  0  0
   -4.8013   -0.4664   -3.2763 H   0  0  0  0  0  0  0  0  0  0  0  0
   -1.8478    1.6835   -1.4136 H   0  0  0  0  0  0  0  0  0  0  0  0
   -2.3929    0.1093   -1.9826 H   0  0  0  0  0  0  0  0  0  0  0  0
   -2.8058   -0.7044    0.1729 H   0  0  0  0  0  0  0  0  0  0  0  0
   -2.8193    0.9105    0.8516 H   0  0  0  0  0  0  0  0  0  0  0  0
   -0.5318    1.0706    0.2481 H   0  0  0  0  0  0  0  0  0  0  0  0
   -0.3136   -0.6543   -1.3467 H   0  0  0  0  0  0  0  0  0  0  0  0
   -0.4625   -1.8028   -0.0405 H   0  0  0  0  0  0  0  0  0  0  0  0
    1.9188   -1.4387   -0.5696 H   0  0  0  0  0  0  0  0  0  0  0  0
    1.7097    0.2681   -0.2771 H   0  0  0  0  0  0  0  0  0  0  0  0
    1.3448   -1.8707    1.8667 H   0  0  0  0  0  0  0  0  0  0  0  0
    0.9738    0.0139    3.3476 H   0  0  0  0  0  0  0  0  0  0  0  0
    1.1390    1.1145    2.0079 H   0  0  0  0  0  0  0  0  0  0  0  0
   -1.0423   -0.9697    2.2770 H   0  0  0  0  0  0  0  0  0  0  0  0
   -1.2283    0.7504    2.4802 H   0  0  0  0  0  0  0  0  0  0  0  0
    3.0107    1.1654    2.3024 H   0  0  0  0  0  0  0  0  0  0  0  0
    4.4524    0.7295    1.4001 H   0  0  0  0  0  0  0  0  0  0  0  0
    4.2874    0.2498    3.0602 H   0  0  0  0  0  0  0  0  0  0  0  0
    9.1161    0.8593   -4.3624 H   0  0  0  0  0  0  0  0  0  0  0  0
    7.9196   -0.2305   -3.9360 H   0  0  0  0  0  0  0  0  0  0  0  0
    5.6594   -3.0596    1.4740 H   0  0  0  0  0  0  0  0  0  0  0  0
    5.6199   -1.6864    2.5526 H   0  0  0  0  0  0  0  0  0  0  0  0
    7.5376   -0.4431    1.8119 H   0  0  0  0  0  0  0  0  0  0  0  0
    8.5681    0.9955    0.1525 H   0  0  0  0  0  0  0  0  0  0  0  0
    5.7272   -0.2450   -2.6881 H   0  0  0  0  0  0  0  0  0  0  0  0
    4.7023   -1.6918   -1.0331 H   0  0  0  0  0  0  0  0  0  0  0  0
  1  2  1  0
  2  3  2  0
  2  7  1  0
  7  6  2  0
  6  5  1  0
  5  4  2  0
  4  3  1  0
  8  9  2  0
  8 13  1  0
 13 12  2  0
 12 11  1  0
 11 10  2  0
 10  9  1  0
  1  8  1  0
  1 14  1  0
 14 15  1  0
 16 17  1  0
 16 21  1  0
 21 20  1  0
 20 19  1  0
 19 18  1  0
 18 17  1  0
 15 16  1  0
 19 22  1  0
 22 23  1  0
 34 24  1  0
 22 25  1  0
 25 26  2  0
 25 27  1  0
 28 29  2  0
 28 33  1  0
 33 32  2  0
 32 31  1  0
 31 30  2  0
 30 29  1  0
 27 28  1  0
 34 35  2  0
 34 36  2  0
 31 34  1  0
  1 37  1  0
  3 38  1  0
  4 39  1  0
  5 40  1  0
  6 41  1  0
  7 42  1  0
  9 43  1  0
 10 44  1  0
 11 45  1  0
 12 46  1  0
 13 47  1  0
 14 48  1  0
 14 49  1  0
 15 50  1  0
 15 51  1  0
 16 52  1  6
 17 53  1  0
 17 54  1  0
 18 55  1  0
 18 56  1  0
 19 57  1  1
 20 58  1  0
 20 59  1  0
 21 60  1  0
 21 61  1  0
 23 62  1  0
 23 63  1  0
 23 64  1  0
 24 65  1  0
 24 66  1  0
 27 67  1  0
 27 68  1  0
 29 69  1  0
 30 70  1  0
 32 71  1  0
 33 72  1  0
M  CHG  1  16   1
M  END
>  <_TriposChargeType>  (3) 
GASTEIGER

>  <Activity>  (3) 
7.04

$$$$
CCR5_38
     RDKit          3D

 77 81  0  0  0  0  0  0  0  0999 V2000
   -3.9868    1.4536   -1.5004 C   0  0  0  0  0  0  0  0  0  0  0  0
   -4.4401    2.6850   -0.6847 C   0  0  0  0  0  0  0  0  0  0  0  0
   -5.7913    3.0500   -0.7546 C   0  0  0  0  0  0  0  0  0  0  0  0
   -6.2921    4.1152   -0.0012 C   0  0  0  0  0  0  0  0  0  0  0  0
   -5.4360    4.8498    0.8219 C   0  0  0  0  0  0  0  0  0  0  0  0
   -4.0793    4.5219    0.8710 C   0  0  0  0  0  0  0  0  0  0  0  0
   -3.5828    3.4576    0.1120 C   0  0  0  0  0  0  0  0  0  0  0  0
   -4.9599    0.2730   -1.3251 C   0  0  0  0  0  0  0  0  0  0  0  0
   -5.5821    0.0285   -0.0942 C   0  0  0  0  0  0  0  0  0  0  0  0
   -6.4699   -1.0412    0.0521 C   0  0  0  0  0  0  0  0  0  0  0  0
   -6.7408   -1.8796   -1.0323 C   0  0  0  0  0  0  0  0  0  0  0  0
   -6.1195   -1.6459   -2.2617 C   0  0  0  0  0  0  0  0  0  0  0  0
   -5.2317   -0.5757   -2.4049 C   0  0  0  0  0  0  0  0  0  0  0  0
   -2.5398    0.9315   -1.2564 C   0  0  0  0  0  0  0  0  0  0  0  0
   -2.3439    0.3049    0.1528 C   0  0  0  0  0  0  0  0  0  0  0  0
   -0.9007    0.1859    0.4958 N   0  0  2  0  0  4  0  0  0  0  0  0
   -0.1908   -0.9102   -0.2093 C   0  0  0  0  0  0  0  0  0  0  0  0
    1.3356   -0.8347    0.0449 C   0  0  0  0  0  0  0  0  0  0  0  0
    1.6561   -0.8834    1.5604 C   0  0  2  0  0  0  0  0  0  0  0  0
    0.8811    0.2696    2.2475 C   0  0  0  0  0  0  0  0  0  0  0  0
   -0.6376    0.1672    1.9562 C   0  0  0  0  0  0  0  0  0  0  0  0
    3.1229   -0.8576    1.6950 N   0  0  0  0  0  0  0  0  0  0  0  0
    3.8721    0.3944    1.8173 C   0  0  0  0  0  0  0  0  0  0  0  0
    3.6550    1.2533    3.0859 C   0  0  0  0  0  0  0  0  0  0  0  0
    3.7878   -2.0290    1.4853 C   0  0  0  0  0  0  0  0  0  0  0  0
    3.1802   -3.0803    1.3592 O   0  0  0  0  0  0  0  0  0  0  0  0
    5.2914   -2.1403    1.3740 C   0  0  0  0  0  0  0  0  0  0  0  0
    5.9147   -1.1071    0.4264 C   0  0  0  0  0  0  0  0  0  0  0  0
    7.0947   -0.4387    0.7725 C   0  0  0  0  0  0  0  0  0  0  0  0
    7.6395    0.5202   -0.0860 C   0  0  0  0  0  0  0  0  0  0  0  0
    7.0173    0.8082   -1.3034 C   0  0  0  0  0  0  0  0  0  0  0  0
    5.8512    0.1269   -1.6621 C   0  0  0  0  0  0  0  0  0  0  0  0
    5.3039   -0.8288   -0.8015 C   0  0  0  0  0  0  0  0  0  0  0  0
    7.7419    1.9930   -2.4103 S   0  0  0  0  0  6  0  0  0  0  0  0
    6.7368    2.4483   -3.3506 O   0  0  0  0  0  0  0  0  0  0  0  0
    8.4945    2.9643   -1.6409 O   0  0  0  0  0  0  0  0  0  0  0  0
    5.0087    0.5569    2.8540 C   0  0  0  0  0  0  0  0  0  0  0  0
    8.9051    0.9356   -3.2866 C   0  0  0  0  0  0  0  0  0  0  0  0
   -3.9915    1.8353   -2.5000 H   0  0  0  0  0  0  0  0  0  0  0  0
   -6.4275    2.5231   -1.3731 H   0  0  0  0  0  0  0  0  0  0  0  0
   -7.2936    4.3587   -0.0531 H   0  0  0  0  0  0  0  0  0  0  0  0
   -5.8032    5.6293    1.3898 H   0  0  0  0  0  0  0  0  0  0  0  0
   -3.4403    5.0676    1.4702 H   0  0  0  0  0  0  0  0  0  0  0  0
   -2.5747    3.2383    0.1384 H   0  0  0  0  0  0  0  0  0  0  0  0
   -5.3835    0.6429    0.7109 H   0  0  0  0  0  0  0  0  0  0  0  0
   -6.9258   -1.2119    0.9621 H   0  0  0  0  0  0  0  0  0  0  0  0
   -7.3974   -2.6686   -0.9256 H   0  0  0  0  0  0  0  0  0  0  0  0
   -6.3161   -2.2638   -3.0646 H   0  0  0  0  0  0  0  0  0  0  0  0
   -4.7727   -0.4098   -3.3142 H   0  0  0  0  0  0  0  0  0  0  0  0
   -1.8418    1.7307   -1.3941 H   0  0  0  0  0  0  0  0  0  0  0  0
   -2.3669    0.1523   -1.9691 H   0  0  0  0  0  0  0  0  0  0  0  0
   -2.8088   -0.6580    0.1918 H   0  0  0  0  0  0  0  0  0  0  0  0
   -2.8032    0.9522    0.8704 H   0  0  0  0  0  0  0  0  0  0  0  0
   -0.4959    1.0507    0.1370 H   0  0  0  0  0  0  0  0  0  0  0  0
   -0.3899   -0.8592   -1.2594 H   0  0  0  0  0  0  0  0  0  0  0  0
   -0.5492   -1.8431    0.1730 H   0  0  0  0  0  0  0  0  0  0  0  0
    1.8297   -1.6392   -0.4587 H   0  0  0  0  0  0  0  0  0  0  0  0
    1.6907    0.0984   -0.3400 H   0  0  0  0  0  0  0  0  0  0  0  0
    1.3319   -1.7735    2.0579 H   0  0  0  0  0  0  0  0  0  0  0  0
    1.0535    0.2482    3.3033 H   0  0  0  0  0  0  0  0  0  0  0  0
    1.2374    1.1971    1.8503 H   0  0  0  0  0  0  0  0  0  0  0  0
   -1.0334   -0.7283    2.3878 H   0  0  0  0  0  0  0  0  0  0  0  0
   -1.1213    1.0147    2.3951 H   0  0  0  0  0  0  0  0  0  0  0  0
    3.8099    0.5411    0.7592 H   0  0  0  0  0  0  0  0  0  0  0  0
    2.9822    0.9776    3.8709 H   0  0  0  0  0  0  0  0  0  0  0  0
    3.3442    2.2597    3.2743 H   0  0  0  0  0  0  0  0  0  0  0  0
    5.5544   -3.1261    1.0516 H   0  0  0  0  0  0  0  0  0  0  0  0
    5.6861   -1.9395    2.3481 H   0  0  0  0  0  0  0  0  0  0  0  0
    7.5646   -0.6549    1.6655 H   0  0  0  0  0  0  0  0  0  0  0  0
    8.5040    1.0170    0.1801 H   0  0  0  0  0  0  0  0  0  0  0  0
    5.3931    0.3298   -2.5643 H   0  0  0  0  0  0  0  0  0  0  0  0
    4.4447   -1.3319   -1.0731 H   0  0  0  0  0  0  0  0  0  0  0  0
    5.9136    1.0905    2.6508 H   0  0  0  0  0  0  0  0  0  0  0  0
    5.6198   -0.1161    3.4184 H   0  0  0  0  0  0  0  0  0  0  0  0
    9.4379    1.5147   -4.0116 H   0  0  0  0  0  0  0  0  0  0  0  0
    8.3867    0.1304   -3.7639 H   0  0  0  0  0  0  0  0  0  0  0  0
    9.6007    0.5221   -2.5866 H   0  0  0  0  0  0  0  0  0  0  0  0
  1  2  1  0
  2  3  2  0
  2  7  1  0
  7  6  2  0
  6  5  1  0
  5  4  2  0
  4  3  1  0
  8  9  2  0
  8 13  1  0
 13 12  2  0
 12 11  1  0
 11 10  2  0
 10  9  1  0
  1  8  1  0
  1 14  1  0
 14 15  1  0
 16 17  1  0
 16 21  1  0
 21 20  1  0
 20 19  1  0
 19 18  1  0
 18 17  1  0
 15 16  1  0
 19 22  1  0
 22 23  1  0
 23 24  1  0
 22 25  1  0
 25 26  2  0
 25 27  1  0
 28 29  2  0
 28 33  1  0
 33 32  2  0
 32 31  1  0
 31 30  2  0
 30 29  1  0
 27 28  1  0
 34 35  2  0
 34 36  2  0
 31 34  1  0
 23 37  1  0
 24 37  1  0
 34 38  1  0
  1 39  1  0
  3 40  1  0
  4 41  1  0
  5 42  1  0
  6 43  1  0
  7 44  1  0
  9 45  1  0
 10 46  1  0
 11 47  1  0
 12 48  1  0
 13 49  1  0
 14 50  1  0
 14 51  1  0
 15 52  1  0
 15 53  1  0
 16 54  1  6
 17 55  1  0
 17 56  1  0
 18 57  1  0
 18 58  1  0
 19 59  1  1
 20 60  1  0
 20 61  1  0
 21 62  1  0
 21 63  1  0
 23 64  1  0
 24 65  1  0
 24 66  1  0
 27 67  1  0
 27 68  1  0
 29 69  1  0
 30 70  1  0
 32 71  1  0
 33 72  1  0
 37 73  1  0
 37 74  1  0
 38 75  1  0
 38 76  1  0
 38 77  1  0
M  CHG  1  16   1
M  END
>  <_TriposChargeType>  (4) 
GASTEIGER

>  <Activity>  (4) 
7.29

$$$$
CCR5_09
     RDKit          3D

 67 70  0  0  0  0  0  0  0  0999 V2000
   -3.9950    1.4305   -1.5050 C   0  0  0  0  0  0  0  0  0  0  0  0
   -4.4344    2.6776   -0.7063 C   0  0  0  0  0  0  0  0  0  0  0  0
   -5.7814    3.0563   -0.7822 C   0  0  0  0  0  0  0  0  0  0  0  0
   -6.2696    4.1409   -0.0485 C   0  0  0  0  0  0  0  0  0  0  0  0
   -5.4049    4.8798    0.7617 C   0  0  0  0  0  0  0  0  0  0  0  0
   -4.0526    4.5353    0.8190 C   0  0  0  0  0  0  0  0  0  0  0  0
   -3.5687    3.4514    0.0800 C   0  0  0  0  0  0  0  0  0  0  0  0
   -4.9738    0.2585   -1.3063 C   0  0  0  0  0  0  0  0  0  0  0  0
   -5.5936    0.0385   -0.0697 C   0  0  0  0  0  0  0  0  0  0  0  0
   -6.4855   -1.0246    0.0976 C   0  0  0  0  0  0  0  0  0  0  0  0
   -6.7630   -1.8807   -0.9712 C   0  0  0  0  0  0  0  0  0  0  0  0
   -6.1445   -1.6710   -2.2064 C   0  0  0  0  0  0  0  0  0  0  0  0
   -5.2527   -0.6072   -2.3707 C   0  0  0  0  0  0  0  0  0  0  0  0
   -2.5496    0.9032   -1.2638 C   0  0  0  0  0  0  0  0  0  0  0  0
   -2.3466    0.2900    0.1508 C   0  0  0  0  0  0  0  0  0  0  0  0
   -0.9060    0.1870    0.5089 N   0  0  2  0  0  4  0  0  0  0  0  0
   -0.1406   -0.8147   -0.2755 C   0  0  0  0  0  0  0  0  0  0  0  0
    1.3779   -0.7214    0.0223 C   0  0  0  0  0  0  0  0  0  0  0  0
    1.6566   -0.8866    1.5373 C   0  0  2  0  0  0  0  0  0  0  0  0
    0.8382    0.1972    2.2865 C   0  0  0  0  0  0  0  0  0  0  0  0
   -0.6714    0.0534    1.9693 C   0  0  0  0  0  0  0  0  0  0  0  0
    3.1150   -0.8677    1.7498 N   0  0  0  0  0  0  0  0  0  0  0  0
    3.8387    0.3494    2.1442 C   0  0  0  0  0  0  0  0  0  0  0  0
    7.8340   -0.5323    2.4573 Cl  0  0  0  0  0  0  0  0  0  0  0  0
    3.8014   -2.0041    1.4317 C   0  0  0  0  0  0  0  0  0  0  0  0
    3.2170   -3.0207    1.0926 O   0  0  0  0  0  0  0  0  0  0  0  0
    5.3094   -2.0988    1.4557 C   0  0  0  0  0  0  0  0  0  0  0  0
    5.9434   -1.0546    0.5227 C   0  0  0  0  0  0  0  0  0  0  0  0
    7.0570   -0.2933    0.9039 C   0  0  0  0  0  0  0  0  0  0  0  0
    7.5718    0.6787    0.0411 C   0  0  0  0  0  0  0  0  0  0  0  0
    6.9923    0.8892   -1.2120 C   0  0  0  0  0  0  0  0  0  0  0  0
    5.8996    0.1152   -1.6079 C   0  0  0  0  0  0  0  0  0  0  0  0
    5.3861   -0.8583   -0.7470 C   0  0  0  0  0  0  0  0  0  0  0  0
    7.6339    2.1172   -2.2837 Cl  0  0  0  0  0  0  0  0  0  0  0  0
   -4.0050    1.7974   -2.5101 H   0  0  0  0  0  0  0  0  0  0  0  0
   -6.4240    2.5251   -1.3904 H   0  0  0  0  0  0  0  0  0  0  0  0
   -7.2681    4.3955   -0.1054 H   0  0  0  0  0  0  0  0  0  0  0  0
   -5.7625    5.6747    1.3142 H   0  0  0  0  0  0  0  0  0  0  0  0
   -3.4076    5.0833    1.4095 H   0  0  0  0  0  0  0  0  0  0  0  0
   -2.5639    3.2184    0.1136 H   0  0  0  0  0  0  0  0  0  0  0  0
   -5.3902    0.6661    0.7239 H   0  0  0  0  0  0  0  0  0  0  0  0
   -6.9396   -1.1774    1.0116 H   0  0  0  0  0  0  0  0  0  0  0  0
   -7.4224   -2.6651   -0.8487 H   0  0  0  0  0  0  0  0  0  0  0  0
   -6.3462   -2.3018   -2.9979 H   0  0  0  0  0  0  0  0  0  0  0  0
   -4.7961   -0.4587   -3.2842 H   0  0  0  0  0  0  0  0  0  0  0  0
   -1.8483    1.6971   -1.4147 H   0  0  0  0  0  0  0  0  0  0  0  0
   -2.3864    0.1150   -1.9688 H   0  0  0  0  0  0  0  0  0  0  0  0
   -2.8021   -0.6772    0.1961 H   0  0  0  0  0  0  0  0  0  0  0  0
   -2.8119    0.9437    0.8586 H   0  0  0  0  0  0  0  0  0  0  0  0
   -0.5232    1.0905    0.2304 H   0  0  0  0  0  0  0  0  0  0  0  0
   -0.3169   -0.6716   -1.3211 H   0  0  0  0  0  0  0  0  0  0  0  0
   -0.4763   -1.7890    0.0126 H   0  0  0  0  0  0  0  0  0  0  0  0
    1.9059   -1.4699   -0.5307 H   0  0  0  0  0  0  0  0  0  0  0  0
    1.7200    0.2468   -0.2783 H   0  0  0  0  0  0  0  0  0  0  0  0
    1.3335   -1.8242    1.9391 H   0  0  0  0  0  0  0  0  0  0  0  0
    1.0012    0.1170    3.3410 H   0  0  0  0  0  0  0  0  0  0  0  0
    1.1655    1.1606    1.9555 H   0  0  0  0  0  0  0  0  0  0  0  0
   -1.0315   -0.8931    2.3148 H   0  0  0  0  0  0  0  0  0  0  0  0
   -1.2037    0.8319    2.4748 H   0  0  0  0  0  0  0  0  0  0  0  0
    3.1374    1.1297    2.3542 H   0  0  0  0  0  0  0  0  0  0  0  0
    4.5071    0.6518    1.3653 H   0  0  0  0  0  0  0  0  0  0  0  0
    4.4137    0.1473    3.0236 H   0  0  0  0  0  0  0  0  0  0  0  0
    5.6186   -3.0819    1.1679 H   0  0  0  0  0  0  0  0  0  0  0  0
    5.6411   -1.9010    2.4536 H   0  0  0  0  0  0  0  0  0  0  0  0
    8.3848    1.2440    0.3318 H   0  0  0  0  0  0  0  0  0  0  0  0
    5.4717    0.2620   -2.5354 H   0  0  0  0  0  0  0  0  0  0  0  0
    4.5882   -1.4385   -1.0499 H   0  0  0  0  0  0  0  0  0  0  0  0
  1  2  1  0
  2  3  2  0
  2  7  1  0
  7  6  2  0
  6  5  1  0
  5  4  2  0
  4  3  1  0
  8  9  2  0
  8 13  1  0
 13 12  2  0
 12 11  1  0
 11 10  2  0
 10  9  1  0
  1  8  1  0
  1 14  1  0
 14 15  1  0
 16 17  1  0
 16 21  1  0
 21 20  1  0
 20 19  1  0
 19 18  1  0
 18 17  1  0
 15 16  1  0
 19 22  1  0
 22 23  1  0
 29 24  1  0
 22 25  1  0
 25 26  2  0
 25 27  1  0
 29 28  2  0
 28 33  1  0
 33 32  2  0
 32 31  1  0
 31 30  2  0
 30 29  1  0
 27 28  1  0
 31 34  1  0
  1 35  1  0
  3 36  1  0
  4 37  1  0
  5 38  1  0
  6 39  1  0
  7 40  1  0
  9 41  1  0
 10 42  1  0
 11 43  1  0
 12 44  1  0
 13 45  1  0
 14 46  1  0
 14 47  1  0
 15 48  1  0
 15 49  1  0
 16 50  1  6
 17 51  1  0
 17 52  1  0
 18 53  1  0
 18 54  1  0
 19 55  1  1
 20 56  1  0
 20 57  1  0
 21 58  1  0
 21 59  1  0
 23 60  1  0
 23 61  1  0
 23 62  1  0
 27 63  1  0
 27 64  1  0
 30 65  1  0
 32 66  1  0
 33 67  1  0
M  CHG  1  16   1
M  END
>  <_TriposChargeType>  (5) 
GASTEIGER

>  <Activity>  (5) 
5.59

$$$$
CCR5_51
     RDKit          3D

 75 78  0  0  0  0  0  0  0  0999 V2000
   -3.9958    1.3332   -1.5017 C   0  0  0  0  0  0  0  0  0  0  0  0
   -4.2876    2.5709   -0.6245 C   0  0  0  0  0  0  0  0  0  0  0  0
   -5.5653    3.1388   -0.7134 C   0  0  0  0  0  0  0  0  0  0  0  0
   -5.9234    4.2377    0.0725 C   0  0  0  0  0  0  0  0  0  0  0  0
   -4.9960    4.7950    0.9554 C   0  0  0  0  0  0  0  0  0  0  0  0
   -3.7109    4.2540    1.0364 C   0  0  0  0  0  0  0  0  0  0  0  0
   -3.3561    3.1575    0.2446 C   0  0  0  0  0  0  0  0  0  0  0  0
   -5.0868    0.2573   -1.3522 C   0  0  0  0  0  0  0  0  0  0  0  0
   -5.7574    0.0665   -0.1374 C   0  0  0  0  0  0  0  0  0  0  0  0
   -6.7533   -0.9075   -0.0222 C   0  0  0  0  0  0  0  0  0  0  0  0
   -7.0859   -1.7031   -1.1215 C   0  0  0  0  0  0  0  0  0  0  0  0
   -6.4166   -1.5238   -2.3348 C   0  0  0  0  0  0  0  0  0  0  0  0
   -5.4204   -0.5496   -2.4467 C   0  0  0  0  0  0  0  0  0  0  0  0
   -2.6049    0.6593   -1.3187 C   0  0  0  0  0  0  0  0  0  0  0  0
   -2.4459   -0.0639    0.0494 C   0  0  0  0  0  0  0  0  0  0  0  0
   -1.0162   -0.1184    0.4503 N   0  0  2  0  0  4  0  0  0  0  0  0
   -0.1610   -1.0208   -0.3600 C   0  0  0  0  0  0  0  0  0  0  0  0
    1.3325   -0.7003   -0.0984 C   0  0  0  0  0  0  0  0  0  0  0  0
    1.6639   -0.8119    1.4105 C   0  0  2  0  0  0  0  0  0  0  0  0
    0.6949    0.0839    2.2278 C   0  0  0  0  0  0  0  0  0  0  0  0
   -0.7786   -0.2736    1.9076 C   0  0  0  0  0  0  0  0  0  0  0  0
    3.0964   -0.5168    1.6274 N   0  0  0  0  0  0  0  0  0  0  0  0
    3.6079    0.8621    1.5944 C   0  0  0  0  0  0  0  0  0  0  0  0
    3.8363    1.4127    3.0275 C   0  0  0  0  0  0  0  0  0  0  0  0
    3.9540   -1.5678    1.8171 C   0  0  0  0  0  0  0  0  0  0  0  0
    3.5231   -2.7085    1.7843 O   0  0  0  0  0  0  0  0  0  0  0  0
    5.2848   -1.4228    2.0437 N   0  0  0  0  0  0  0  0  0  0  0  0
    7.4861   -2.2143    2.8650 C   0  0  0  0  0  0  0  0  0  0  0  0
    7.8679   -2.7423    4.1055 C   0  0  0  0  0  0  0  0  0  0  0  0
    9.0888   -2.3867    4.6866 C   0  0  0  0  0  0  0  0  0  0  0  0
    9.9445   -1.4979    4.0312 C   0  0  0  0  0  0  0  0  0  0  0  0
    9.5734   -0.9664    2.7938 C   0  0  0  0  0  0  0  0  0  0  0  0
    8.3508   -1.3224    2.2171 C   0  0  0  0  0  0  0  0  0  0  0  0
    6.1379   -2.6018    2.2197 C   0  0  2  0  0  0  0  0  0  0  0  0
    6.3824   -3.3052    0.8586 C   0  0  0  0  0  0  0  0  0  0  0  0
   -3.9910    1.7497   -2.4873 H   0  0  0  0  0  0  0  0  0  0  0  0
   -6.2536    2.7390   -1.3702 H   0  0  0  0  0  0  0  0  0  0  0  0
   -6.8723    4.6369    0.0004 H   0  0  0  0  0  0  0  0  0  0  0  0
   -5.2584    5.6011    1.5440 H   0  0  0  0  0  0  0  0  0  0  0  0
   -3.0202    4.6653    1.6835 H   0  0  0  0  0  0  0  0  0  0  0  0
   -2.3989    2.7759    0.3003 H   0  0  0  0  0  0  0  0  0  0  0  0
   -5.5144    0.6494    0.6788 H   0  0  0  0  0  0  0  0  0  0  0  0
   -7.2437   -1.0392    0.8762 H   0  0  0  0  0  0  0  0  0  0  0  0
   -7.8231   -2.4204   -1.0377 H   0  0  0  0  0  0  0  0  0  0  0  0
   -6.6578   -2.1108   -3.1486 H   0  0  0  0  0  0  0  0  0  0  0  0
   -4.9264   -0.4240   -3.3440 H   0  0  0  0  0  0  0  0  0  0  0  0
   -1.8337    1.3929   -1.4283 H   0  0  0  0  0  0  0  0  0  0  0  0
   -2.5236   -0.0918   -2.0764 H   0  0  0  0  0  0  0  0  0  0  0  0
   -2.8483   -1.0536   -0.0098 H   0  0  0  0  0  0  0  0  0  0  0  0
   -2.9848    0.4893    0.7900 H   0  0  0  0  0  0  0  0  0  0  0  0
   -0.7013    0.8239    0.2193 H   0  0  0  0  0  0  0  0  0  0  0  0
   -0.3866   -0.9088   -1.3999 H   0  0  0  0  0  0  0  0  0  0  0  0
   -0.3556   -2.0341   -0.0767 H   0  0  0  0  0  0  0  0  0  0  0  0
    1.9539   -1.3661   -0.6601 H   0  0  0  0  0  0  0  0  0  0  0  0
    1.5212    0.3054   -0.4114 H   0  0  0  0  0  0  0  0  0  0  0  0
    1.5103   -1.8099    1.7644 H   0  0  0  0  0  0  0  0  0  0  0  0
    0.8818   -0.0331    3.2748 H   0  0  0  0  0  0  0  0  0  0  0  0
    0.8639    1.1046    1.9547 H   0  0  0  0  0  0  0  0  0  0  0  0
   -0.9919   -1.2765    2.2135 H   0  0  0  0  0  0  0  0  0  0  0  0
   -1.4274    0.3869    2.4440 H   0  0  0  0  0  0  0  0  0  0  0  0
    2.9237    1.4926    1.0660 H   0  0  0  0  0  0  0  0  0  0  0  0
    4.5502    0.8546    1.0875 H   0  0  0  0  0  0  0  0  0  0  0  0
    2.9061    1.4300    3.5559 H   0  0  0  0  0  0  0  0  0  0  0  0
    4.2560    2.3960    2.9840 H   0  0  0  0  0  0  0  0  0  0  0  0
    4.5225    0.7747    3.5442 H   0  0  0  0  0  0  0  0  0  0  0  0
    5.6786   -0.5217    2.0900 H   0  0  0  0  0  0  0  0  0  0  0  0
    7.2416   -3.4003    4.5952 H   0  0  0  0  0  0  0  0  0  0  0  0
    9.3583   -2.7814    5.6012 H   0  0  0  0  0  0  0  0  0  0  0  0
   10.8462   -1.2353    4.4590 H   0  0  0  0  0  0  0  0  0  0  0  0
   10.2024   -0.3103    2.3050 H   0  0  0  0  0  0  0  0  0  0  0  0
    8.0821   -0.9238    1.3039 H   0  0  0  0  0  0  0  0  0  0  0  0
    5.6316   -3.2809    2.8735 H   0  0  0  0  0  0  0  0  0  0  0  0
    6.8887   -2.6348    0.1960 H   0  0  0  0  0  0  0  0  0  0  0  0
    5.4527   -3.6173    0.4306 H   0  0  0  0  0  0  0  0  0  0  0  0
    6.9905   -4.1716    1.0147 H   0  0  0  0  0  0  0  0  0  0  0  0
  1  2  1  0
  2  3  2  0
  2  7  1  0
  7  6  2  0
  6  5  1  0
  5  4  2  0
  4  3  1  0
  8  9  2  0
  8 13  1  0
 13 12  2  0
 12 11  1  0
 11 10  2  0
 10  9  1  0
  1  8  1  0
  1 14  1  0
 14 15  1  0
 16 17  1  0
 16 21  1  0
 21 20  1  0
 20 19  1  0
 19 18  1  0
 18 17  1  0
 16 15  1  0
 19 22  1  0
 22 23  1  0
 23 24  1  0
 22 25  1  0
 25 26  2  0
 25 27  1  0
 28 29  2  0
 28 33  1  0
 33 32  2  0
 32 31  1  0
 31 30  2  0
 30 29  1  0
 27 34  1  0
 28 34  1  0
 34 35  1  0
  1 36  1  0
  3 37  1  0
  4 38  1  0
  5 39  1  0
  6 40  1  0
  7 41  1  0
  9 42  1  0
 10 43  1  0
 11 44  1  0
 12 45  1  0
 13 46  1  0
 14 47  1  0
 14 48  1  0
 15 49  1  0
 15 50  1  0
 16 51  1  6
 17 52  1  0
 17 53  1  0
 18 54  1  0
 18 55  1  0
 19 56  1  1
 20 57  1  0
 20 58  1  0
 21 59  1  0
 21 60  1  0
 23 61  1  0
 23 62  1  0
 24 63  1  0
 24 64  1  0
 24 65  1  0
 27 66  1  0
 29 67  1  0
 30 68  1  0
 31 69  1  0
 32 70  1  0
 33 71  1  0
 34 72  1  1
 35 73  1  0
 35 74  1  0
 35 75  1  0
M  CHG  1  16   1
M  END
>  <_TriposChargeType>  (6) 
GASTEIGER

>  <Activity>  (6) 
5.27

$$$$
CCR5_20
     RDKit          3D

 81 85  0  0  0  0  0  0  0  0999 V2000
   -3.9852    1.4284   -1.4962 C   0  0  0  0  0  0  0  0  0  0  0  0
   -4.4223    2.6774   -0.6995 C   0  0  0  0  0  0  0  0  0  0  0  0
   -5.7645    3.0690   -0.7914 C   0  0  0  0  0  0  0  0  0  0  0  0
   -6.2507    4.1588   -0.0640 C   0  0  0  0  0  0  0  0  0  0  0  0
   -5.3886    4.8892    0.7565 C   0  0  0  0  0  0  0  0  0  0  0  0
   -4.0408    4.5305    0.8314 C   0  0  0  0  0  0  0  0  0  0  0  0
   -3.5589    3.4411    0.0991 C   0  0  0  0  0  0  0  0  0  0  0  0
   -4.9733    0.2626   -1.3088 C   0  0  0  0  0  0  0  0  0  0  0  0
   -5.6071    0.0456   -0.0789 C   0  0  0  0  0  0  0  0  0  0  0  0
   -6.5042   -1.0145    0.0793 C   0  0  0  0  0  0  0  0  0  0  0  0
   -6.7736   -1.8697   -0.9923 C   0  0  0  0  0  0  0  0  0  0  0  0
   -6.1427   -1.6617   -2.2215 C   0  0  0  0  0  0  0  0  0  0  0  0
   -5.2458   -0.6008   -2.3768 C   0  0  0  0  0  0  0  0  0  0  0  0
   -2.5466    0.8890   -1.2433 C   0  0  0  0  0  0  0  0  0  0  0  0
   -2.3624    0.2641    0.1690 C   0  0  0  0  0  0  0  0  0  0  0  0
   -0.9247    0.1436    0.5316 N   0  0  2  0  0  4  0  0  0  0  0  0
   -0.1722   -0.8810   -0.2345 C   0  0  0  0  0  0  0  0  0  0  0  0
    1.3487   -0.7721    0.0406 C   0  0  0  0  0  0  0  0  0  0  0  0
    1.6539   -0.8971    1.5553 C   0  0  2  0  0  0  0  0  0  0  0  0
    0.8296    0.1917    2.2922 C   0  0  0  0  0  0  0  0  0  0  0  0
   -0.6818    0.0323    1.9921 C   0  0  0  0  0  0  0  0  0  0  0  0
    3.1161   -0.8360    1.7278 N   0  0  0  0  0  0  0  0  0  0  0  0
    3.8135    0.4011    2.1062 C   0  0  0  0  0  0  0  0  0  0  0  0
    6.7648    2.3053   -2.2629 O   0  0  0  0  0  0  0  0  0  0  0  0
    3.8278   -1.9466    1.3748 C   0  0  0  0  0  0  0  0  0  0  0  0
    3.2664   -2.9946    1.0976 O   0  0  0  0  0  0  0  0  0  0  0  0
    5.3359   -1.9659    1.2712 C   0  0  0  0  0  0  0  0  0  0  0  0
    5.7947   -0.8703    0.2990 C   0  0  0  0  0  0  0  0  0  0  0  0
    6.8272    0.0135    0.6346 C   0  0  0  0  0  0  0  0  0  0  0  0
    7.1559    1.0675   -0.2233 C   0  0  0  0  0  0  0  0  0  0  0  0
    6.4682    1.2295   -1.4284 C   0  0  0  0  0  0  0  0  0  0  0  0
    5.4798    0.3138   -1.7951 C   0  0  0  0  0  0  0  0  0  0  0  0
    5.1579   -0.7440   -0.9409 C   0  0  0  0  0  0  0  0  0  0  0  0
    7.7072    2.0035   -3.3053 C   0  0  0  0  0  0  0  0  0  0  0  0
    7.9329    3.2570   -4.1605 C   0  0  0  0  0  0  0  0  0  0  0  0
    7.9880    4.5154   -3.5504 C   0  0  0  0  0  0  0  0  0  0  0  0
    8.1698    5.6682   -4.3200 C   0  0  0  0  0  0  0  0  0  0  0  0
    8.3069    5.5680   -5.7071 C   0  0  0  0  0  0  0  0  0  0  0  0
    8.2663    4.3130   -6.3208 C   0  0  0  0  0  0  0  0  0  0  0  0
    8.0831    3.1616   -5.5493 C   0  0  0  0  0  0  0  0  0  0  0  0
   -3.9841    1.7986   -2.5001 H   0  0  0  0  0  0  0  0  0  0  0  0
   -6.4051    2.5436   -1.4068 H   0  0  0  0  0  0  0  0  0  0  0  0
   -7.2458    4.4235   -0.1332 H   0  0  0  0  0  0  0  0  0  0  0  0
   -5.7448    5.6884    1.3037 H   0  0  0  0  0  0  0  0  0  0  0  0
   -3.3977    5.0719    1.4299 H   0  0  0  0  0  0  0  0  0  0  0  0
   -2.5574    3.1966    0.1469 H   0  0  0  0  0  0  0  0  0  0  0  0
   -5.4103    0.6731    0.7165 H   0  0  0  0  0  0  0  0  0  0  0  0
   -6.9681   -1.1657    0.9887 H   0  0  0  0  0  0  0  0  0  0  0  0
   -7.4363   -2.6523   -0.8763 H   0  0  0  0  0  0  0  0  0  0  0  0
   -6.3389   -2.2916   -3.0151 H   0  0  0  0  0  0  0  0  0  0  0  0
   -4.7807   -0.4528   -3.2861 H   0  0  0  0  0  0  0  0  0  0  0  0
   -1.8381    1.6788   -1.3812 H   0  0  0  0  0  0  0  0  0  0  0  0
   -2.3820    0.1044   -1.9520 H   0  0  0  0  0  0  0  0  0  0  0  0
   -2.8286   -0.6983    0.2047 H   0  0  0  0  0  0  0  0  0  0  0  0
   -2.8267    0.9157    0.8794 H   0  0  0  0  0  0  0  0  0  0  0  0
   -0.5370    1.0403    0.2384 H   0  0  0  0  0  0  0  0  0  0  0  0
   -0.3637   -0.7691   -1.2813 H   0  0  0  0  0  0  0  0  0  0  0  0
   -0.5026   -1.8478    0.0835 H   0  0  0  0  0  0  0  0  0  0  0  0
    1.8732   -1.5309   -0.5016 H   0  0  0  0  0  0  0  0  0  0  0  0
    1.6786    0.1914   -0.2875 H   0  0  0  0  0  0  0  0  0  0  0  0
    1.3554   -1.8279    1.9905 H   0  0  0  0  0  0  0  0  0  0  0  0
    1.0024    0.1315    3.3464 H   0  0  0  0  0  0  0  0  0  0  0  0
    1.1450    1.1513    1.9392 H   0  0  0  0  0  0  0  0  0  0  0  0
   -1.0319   -0.9121    2.3533 H   0  0  0  0  0  0  0  0  0  0  0  0
   -1.2179    0.8116    2.4923 H   0  0  0  0  0  0  0  0  0  0  0  0
    3.0952    1.1562    2.3485 H   0  0  0  0  0  0  0  0  0  0  0  0
    4.4425    0.7313    1.3061 H   0  0  0  0  0  0  0  0  0  0  0  0
    4.4268    0.2114    2.9622 H   0  0  0  0  0  0  0  0  0  0  0  0
    5.6721   -2.9244    0.9349 H   0  0  0  0  0  0  0  0  0  0  0  0
    5.7581   -1.7800    2.2367 H   0  0  0  0  0  0  0  0  0  0  0  0
    7.3469   -0.1132    1.5172 H   0  0  0  0  0  0  0  0  0  0  0  0
    7.9073    1.7264    0.0340 H   0  0  0  0  0  0  0  0  0  0  0  0
    4.9876    0.4183   -2.6961 H   0  0  0  0  0  0  0  0  0  0  0  0
    4.4469   -1.4357   -1.2257 H   0  0  0  0  0  0  0  0  0  0  0  0
    8.6325    1.6698   -2.8841 H   0  0  0  0  0  0  0  0  0  0  0  0
    7.3169    1.2198   -3.9205 H   0  0  0  0  0  0  0  0  0  0  0  0
    7.8938    4.5928   -2.5256 H   0  0  0  0  0  0  0  0  0  0  0  0
    8.2028    6.5933   -3.8638 H   0  0  0  0  0  0  0  0  0  0  0  0
    8.4378    6.4185   -6.2768 H   0  0  0  0  0  0  0  0  0  0  0  0
    8.3717    4.2362   -7.3445 H   0  0  0  0  0  0  0  0  0  0  0  0
    8.0584    2.2364   -6.0059 H   0  0  0  0  0  0  0  0  0  0  0  0
  1  2  1  0
  2  3  2  0
  2  7  1  0
  7  6  2  0
  6  5  1  0
  5  4  2  0
  4  3  1  0
  8  9  2  0
  8 13  1  0
 13 12  2  0
 12 11  1  0
 11 10  2  0
 10  9  1  0
  1  8  1  0
  1 14  1  0
 14 15  1  0
 16 17  1  0
 16 21  1  0
 21 20  1  0
 20 19  1  0
 19 18  1  0
 18 17  1  0
 15 16  1  0
 19 22  1  0
 22 23  1  0
 31 24  1  0
 22 25  1  0
 25 26  2  0
 25 27  1  0
 28 29  2  0
 33 28  1  0
 32 33  2  0
 32 31  1  0
 31 30  2  0
 30 29  1  0
 27 28  1  0
 34 35  1  0
 35 36  2  0
 35 40  1  0
 40 39  2  0
 39 38  1  0
 38 37  2  0
 37 36  1  0
 24 34  1  0
  1 41  1  0
  3 42  1  0
  4 43  1  0
  5 44  1  0
  6 45  1  0
  7 46  1  0
  9 47  1  0
 10 48  1  0
 11 49  1  0
 12 50  1  0
 13 51  1  0
 14 52  1  0
 14 53  1  0
 15 54  1  0
 15 55  1  0
 16 56  1  6
 17 57  1  0
 17 58  1  0
 18 59  1  0
 18 60  1  0
 19 61  1  1
 20 62  1  0
 20 63  1  0
 21 64  1  0
 21 65  1  0
 23 66  1  0
 23 67  1  0
 23 68  1  0
 27 69  1  0
 27 70  1  0
 29 71  1  0
 30 72  1  0
 32 73  1  0
 33 74  1  0
 34 75  1  0
 34 76  1  0
 36 77  1  0
 37 78  1  0
 38 79  1  0
 39 80  1  0
 40 81  1  0
M  CHG  1  16   1
M  END
>  <_TriposChargeType>  (7) 
GASTEIGER

>  <Activity>  (7) 
5.46

$$$$
CCR5_32
     RDKit          3D

 74 77  0  0  0  0  0  0  0  0999 V2000
   -4.0035    1.4165   -1.5074 C   0  0  0  0  0  0  0  0  0  0  0  0
   -4.4204    2.6773   -0.7187 C   0  0  0  0  0  0  0  0  0  0  0  0
   -5.7510    3.1006   -0.8350 C   0  0  0  0  0  0  0  0  0  0  0  0
   -6.2206    4.2106   -0.1274 C   0  0  0  0  0  0  0  0  0  0  0  0
   -5.3539    4.9262    0.7012 C   0  0  0  0  0  0  0  0  0  0  0  0
   -4.0188    4.5301    0.8072 C   0  0  0  0  0  0  0  0  0  0  0  0
   -3.5532    3.4203    0.0954 C   0  0  0  0  0  0  0  0  0  0  0  0
   -4.9929    0.2587   -1.2800 C   0  0  0  0  0  0  0  0  0  0  0  0
   -5.6213    0.0788   -0.0413 C   0  0  0  0  0  0  0  0  0  0  0  0
   -6.5211   -0.9733    0.1517 C   0  0  0  0  0  0  0  0  0  0  0  0
   -6.7986   -1.8579   -0.8935 C   0  0  0  0  0  0  0  0  0  0  0  0
   -6.1725   -1.6877   -2.1309 C   0  0  0  0  0  0  0  0  0  0  0  0
   -5.2728   -0.6348   -2.3209 C   0  0  0  0  0  0  0  0  0  0  0  0
   -2.5584    0.8825   -1.2809 C   0  0  0  0  0  0  0  0  0  0  0  0
   -2.3585    0.2317    0.1176 C   0  0  0  0  0  0  0  0  0  0  0  0
   -0.9287    0.1336    0.5169 N   0  0  2  0  0  4  0  0  0  0  0  0
   -0.0604   -0.6475   -0.3997 C   0  0  0  0  0  0  0  0  0  0  0  0
    1.4295   -0.4982    0.0002 C   0  0  0  0  0  0  0  0  0  0  0  0
    1.6578   -0.9314    1.4680 C   0  0  2  0  0  0  0  0  0  0  0  0
    0.7097   -0.1153    2.3857 C   0  0  0  0  0  0  0  0  0  0  0  0
   -0.7625   -0.2866    1.9324 C   0  0  0  0  0  0  0  0  0  0  0  0
    3.1030   -0.8267    1.7484 N   0  0  0  0  0  0  0  0  0  0  0  0
    3.7256    0.4248    2.2086 C   0  0  0  0  0  0  0  0  0  0  0  0
    3.8076    0.5051    3.7555 C   0  0  0  0  0  0  0  0  0  0  0  0
    3.8753   -1.9222    1.4792 C   0  0  0  0  0  0  0  0  0  0  0  0
    3.3789   -2.9596    1.0694 O   0  0  0  0  0  0  0  0  0  0  0  0
    5.3805   -1.9563    1.6304 C   0  0  0  0  0  0  0  0  0  0  0  0
    6.0707   -1.1826    0.4971 C   0  0  0  0  0  0  0  0  0  0  0  0
    7.1549   -0.3389    0.7633 C   0  0  0  0  0  0  0  0  0  0  0  0
    7.7387    0.4176   -0.2578 C   0  0  0  0  0  0  0  0  0  0  0  0
    7.2500    0.3293   -1.5684 C   0  0  0  0  0  0  0  0  0  0  0  0
    6.1990   -0.5509   -1.8393 C   0  0  0  0  0  0  0  0  0  0  0  0
    5.6153   -1.3072   -0.8194 C   0  0  0  0  0  0  0  0  0  0  0  0
    7.7724    1.0904   -2.6225 O   0  0  0  0  0  0  0  0  0  0  0  0
    8.7653    2.1018   -2.4015 C   0  0  0  0  0  0  0  0  0  0  0  0
    9.0093    2.7136   -3.5906 F   0  0  0  0  0  0  0  0  0  0  0  0
    9.9237    1.5499   -1.9489 F   0  0  0  0  0  0  0  0  0  0  0  0
    8.3114    3.0293   -1.5151 F   0  0  0  0  0  0  0  0  0  0  0  0
   -4.0231    1.7668   -2.5183 H   0  0  0  0  0  0  0  0  0  0  0  0
   -6.3953    2.5839   -1.4538 H   0  0  0  0  0  0  0  0  0  0  0  0
   -7.2068    4.5010   -0.2172 H   0  0  0  0  0  0  0  0  0  0  0  0
   -5.6975    5.7421    1.2316 H   0  0  0  0  0  0  0  0  0  0  0  0
   -3.3728    5.0591    1.4138 H   0  0  0  0  0  0  0  0  0  0  0  0
   -2.5613    3.1451    0.1699 H   0  0  0  0  0  0  0  0  0  0  0  0
   -5.4184    0.7280    0.7349 H   0  0  0  0  0  0  0  0  0  0  0  0
   -6.9810   -1.0968    1.0673 H   0  0  0  0  0  0  0  0  0  0  0  0
   -7.4637   -2.6343   -0.7521 H   0  0  0  0  0  0  0  0  0  0  0  0
   -6.3744   -2.3396   -2.9050 H   0  0  0  0  0  0  0  0  0  0  0  0
   -4.8111   -0.5151   -3.2361 H   0  0  0  0  0  0  0  0  0  0  0  0
   -1.8566    1.6799   -1.4095 H   0  0  0  0  0  0  0  0  0  0  0  0
   -2.3937    0.1144   -2.0074 H   0  0  0  0  0  0  0  0  0  0  0  0
   -2.8020   -0.7420    0.1275 H   0  0  0  0  0  0  0  0  0  0  0  0
   -2.8376    0.8706    0.8298 H   0  0  0  0  0  0  0  0  0  0  0  0
   -0.5880    1.0911    0.4307 H   0  0  0  0  0  0  0  0  0  0  0  0
   -0.2041   -0.3209   -1.4085 H   0  0  0  0  0  0  0  0  0  0  0  0
   -0.3300   -1.6802   -0.3247 H   0  0  0  0  0  0  0  0  0  0  0  0
    2.0436   -1.0822   -0.6530 H   0  0  0  0  0  0  0  0  0  0  0  0
    1.6979    0.5337   -0.0894 H   0  0  0  0  0  0  0  0  0  0  0  0
    1.4011   -1.9518    1.6625 H   0  0  0  0  0  0  0  0  0  0  0  0
    0.8204   -0.4309    3.4021 H   0  0  0  0  0  0  0  0  0  0  0  0
    0.9712    0.9197    2.3125 H   0  0  0  0  0  0  0  0  0  0  0  0
   -1.0663   -1.3057    2.0505 H   0  0  0  0  0  0  0  0  0  0  0  0
   -1.3799    0.3365    2.5451 H   0  0  0  0  0  0  0  0  0  0  0  0
    3.1769    1.2623    1.8312 H   0  0  0  0  0  0  0  0  0  0  0  0
    4.7271    0.4429    1.8323 H   0  0  0  0  0  0  0  0  0  0  0  0
    2.8199    0.4892    4.1668 H   0  0  0  0  0  0  0  0  0  0  0  0
    4.3188    1.3966    4.0536 H   0  0  0  0  0  0  0  0  0  0  0  0
    4.3552   -0.3375    4.1229 H   0  0  0  0  0  0  0  0  0  0  0  0
    5.7234   -2.9698    1.6422 H   0  0  0  0  0  0  0  0  0  0  0  0
    5.6326   -1.4845    2.5571 H   0  0  0  0  0  0  0  0  0  0  0  0
    7.5277   -0.2742    1.7234 H   0  0  0  0  0  0  0  0  0  0  0  0
    8.5318    1.0428   -0.0456 H   0  0  0  0  0  0  0  0  0  0  0  0
    5.8491   -0.6437   -2.8057 H   0  0  0  0  0  0  0  0  0  0  0  0
    4.8461   -1.9595   -1.0382 H   0  0  0  0  0  0  0  0  0  0  0  0
  1  2  1  0
  2  3  2  0
  2  7  1  0
  7  6  2  0
  6  5  1  0
  5  4  2  0
  4  3  1  0
  8  9  2  0
  8 13  1  0
 13 12  2  0
 12 11  1  0
 11 10  2  0
 10  9  1  0
  1  8  1  0
  1 14  1  0
 14 15  1  0
 16 17  1  0
 16 21  1  0
 21 20  1  0
 20 19  1  0
 19 18  1  0
 18 17  1  0
 15 16  1  0
 19 22  1  0
 22 23  1  0
 23 24  1  0
 22 25  1  0
 25 26  2  0
 25 27  1  0
 28 29  2  0
 28 33  1  0
 33 32  2  0
 32 31  1  0
 31 30  2  0
 30 29  1  0
 27 28  1  0
 31 34  1  0
 34 35  1  0
 35 36  1  0
 35 37  1  0
 35 38  1  0
  1 39  1  0
  3 40  1  0
  4 41  1  0
  5 42  1  0
  6 43  1  0
  7 44  1  0
  9 45  1  0
 10 46  1  0
 11 47  1  0
 12 48  1  0
 13 49  1  0
 14 50  1  0
 14 51  1  0
 15 52  1  0
 15 53  1  0
 16 54  1  1
 17 55  1  0
 17 56  1  0
 18 57  1  0
 18 58  1  0
 19 59  1  6
 20 60  1  0
 20 61  1  0
 21 62  1  0
 21 63  1  0
 23 64  1  0
 23 65  1  0
 24 66  1  0
 24 67  1  0
 24 68  1  0
 27 69  1  0
 27 70  1  0
 29 71  1  0
 30 72  1  0
 32 73  1  0
 33 74  1  0
M  CHG  1  16   1
M  END
>  <_TriposChargeType>  (8) 
GASTEIGER

>  <Activity>  (8) 
6.51

$$$$
CCR5_24
     RDKit          3D

 74 77  0  0  0  0  0  0  0  0999 V2000
   -3.9926    1.4343   -1.5008 C   0  0  0  0  0  0  0  0  0  0  0  0
   -4.4320    2.6742   -0.6909 C   0  0  0  0  0  0  0  0  0  0  0  0
   -5.7774    3.0578   -0.7696 C   0  0  0  0  0  0  0  0  0  0  0  0
   -6.2661    4.1360   -0.0265 C   0  0  0  0  0  0  0  0  0  0  0  0
   -5.4035    4.8630    0.7965 C   0  0  0  0  0  0  0  0  0  0  0  0
   -4.0525    4.5138    0.8569 C   0  0  0  0  0  0  0  0  0  0  0  0
   -3.5680    3.4369    0.1081 C   0  0  0  0  0  0  0  0  0  0  0  0
   -4.9738    0.2620   -1.3161 C   0  0  0  0  0  0  0  0  0  0  0  0
   -5.5998    0.0327   -0.0843 C   0  0  0  0  0  0  0  0  0  0  0  0
   -6.4943   -1.0303    0.0700 C   0  0  0  0  0  0  0  0  0  0  0  0
   -6.7681   -1.8769   -1.0072 C   0  0  0  0  0  0  0  0  0  0  0  0
   -6.1432   -1.6582   -2.2376 C   0  0  0  0  0  0  0  0  0  0  0  0
   -5.2489   -0.5945   -2.3888 C   0  0  0  0  0  0  0  0  0  0  0  0
   -2.5489    0.9025   -1.2603 C   0  0  0  0  0  0  0  0  0  0  0  0
   -2.3517    0.2755    0.1489 C   0  0  0  0  0  0  0  0  0  0  0  0
   -0.9096    0.1729    0.5000 N   0  0  2  0  0  4  0  0  0  0  0  0
   -0.1624   -0.8704   -0.2472 C   0  0  0  0  0  0  0  0  0  0  0  0
    1.3614   -0.7716    0.0203 C   0  0  0  0  0  0  0  0  0  0  0  0
    1.6614   -0.8600    1.5375 C   0  0  2  0  0  0  0  0  0  0  0  0
    0.8630    0.2680    2.2418 C   0  0  0  0  0  0  0  0  0  0  0  0
   -0.6528    0.1140    1.9614 C   0  0  0  0  0  0  0  0  0  0  0  0
    3.1231   -0.8498    1.7259 N   0  0  0  0  0  0  0  0  0  0  0  0
    3.8752    0.3777    2.0214 C   0  0  0  0  0  0  0  0  0  0  0  0
    7.5495    1.6156   -2.1887 N   0  0  0  0  0  0  0  0  0  0  0  0
    3.7883   -2.0150    1.4731 C   0  0  0  0  0  0  0  0  0  0  0  0
    3.1841   -3.0439    1.2140 O   0  0  0  0  0  0  0  0  0  0  0  0
    5.2955   -2.1297    1.4787 C   0  0  0  0  0  0  0  0  0  0  0  0
    5.9311   -1.1474    0.4857 C   0  0  0  0  0  0  0  0  0  0  0  0
    7.0274   -0.3584    0.8508 C   0  0  0  0  0  0  0  0  0  0  0  0
    7.5630    0.5643   -0.0525 C   0  0  0  0  0  0  0  0  0  0  0  0
    7.0230    0.7017   -1.3358 C   0  0  0  0  0  0  0  0  0  0  0  0
    5.9569   -0.1225   -1.7149 C   0  0  0  0  0  0  0  0  0  0  0  0
    5.4079   -1.0319   -0.8065 C   0  0  0  0  0  0  0  0  0  0  0  0
    6.7999    2.3981   -2.9204 C   0  0  0  0  0  0  0  0  0  0  0  0
    5.5806    2.3858   -2.8853 O   0  0  0  0  0  0  0  0  0  0  0  0
    7.4693    3.3800   -3.8484 C   0  0  0  0  0  0  0  0  0  0  0  0
   -3.9994    1.8107   -2.5024 H   0  0  0  0  0  0  0  0  0  0  0  0
   -6.4185    2.5352   -1.3868 H   0  0  0  0  0  0  0  0  0  0  0  0
   -7.2634    4.3946   -0.0860 H   0  0  0  0  0  0  0  0  0  0  0  0
   -5.7617    5.6527    1.3561 H   0  0  0  0  0  0  0  0  0  0  0  0
   -3.4089    5.0531    1.4569 H   0  0  0  0  0  0  0  0  0  0  0  0
   -2.5640    3.2009    0.1438 H   0  0  0  0  0  0  0  0  0  0  0  0
   -5.3991    0.6533    0.7155 H   0  0  0  0  0  0  0  0  0  0  0  0
   -6.9530   -1.1899    0.9806 H   0  0  0  0  0  0  0  0  0  0  0  0
   -7.4296   -2.6610   -0.8945 H   0  0  0  0  0  0  0  0  0  0  0  0
   -6.3420   -2.2822   -3.0351 H   0  0  0  0  0  0  0  0  0  0  0  0
   -4.7876   -0.4393   -3.2988 H   0  0  0  0  0  0  0  0  0  0  0  0
   -1.8459    1.6967   -1.4012 H   0  0  0  0  0  0  0  0  0  0  0  0
   -2.3844    0.1210   -1.9724 H   0  0  0  0  0  0  0  0  0  0  0  0
   -2.8053   -0.6930    0.1838 H   0  0  0  0  0  0  0  0  0  0  0  0
   -2.8218    0.9166    0.8650 H   0  0  0  0  0  0  0  0  0  0  0  0
   -0.5233    1.0600    0.1772 H   0  0  0  0  0  0  0  0  0  0  0  0
   -0.3557   -0.7774   -1.2955 H   0  0  0  0  0  0  0  0  0  0  0  0
   -0.4980   -1.8275    0.0938 H   0  0  0  0  0  0  0  0  0  0  0  0
    1.8761   -1.5515   -0.5009 H   0  0  0  0  0  0  0  0  0  0  0  0
    1.7054    0.1767   -0.3365 H   0  0  0  0  0  0  0  0  0  0  0  0
    1.3353   -1.7706    1.9950 H   0  0  0  0  0  0  0  0  0  0  0  0
    1.0460    0.2449    3.2958 H   0  0  0  0  0  0  0  0  0  0  0  0
    1.1881    1.2104    1.8530 H   0  0  0  0  0  0  0  0  0  0  0  0
   -1.0094   -0.8122    2.3613 H   0  0  0  0  0  0  0  0  0  0  0  0
   -1.1753    0.9179    2.4365 H   0  0  0  0  0  0  0  0  0  0  0  0
    3.1917    1.1831    2.1917 H   0  0  0  0  0  0  0  0  0  0  0  0
    4.5317    0.6142    1.2103 H   0  0  0  0  0  0  0  0  0  0  0  0
    4.4655    0.2255    2.9008 H   0  0  0  0  0  0  0  0  0  0  0  0
    8.5285    1.6923   -2.2591 H   0  0  0  0  0  0  0  0  0  0  0  0
    5.5864   -3.1310    1.2386 H   0  0  0  0  0  0  0  0  0  0  0  0
    5.6442   -1.8833    2.4598 H   0  0  0  0  0  0  0  0  0  0  0  0
    7.4422   -0.4580    1.7905 H   0  0  0  0  0  0  0  0  0  0  0  0
    8.3645    1.1498    0.2300 H   0  0  0  0  0  0  0  0  0  0  0  0
    5.5739   -0.0583   -2.6711 H   0  0  0  0  0  0  0  0  0  0  0  0
    4.6108   -1.6224   -1.0911 H   0  0  0  0  0  0  0  0  0  0  0  0
    8.5315    3.2762   -3.7723 H   0  0  0  0  0  0  0  0  0  0  0  0
    7.1763    4.3796   -3.6039 H   0  0  0  0  0  0  0  0  0  0  0  0
    7.1671    3.1755   -4.8543 H   0  0  0  0  0  0  0  0  0  0  0  0
  1  2  1  0
  2  3  2  0
  2  7  1  0
  7  6  2  0
  6  5  1  0
  5  4  2  0
  4  3  1  0
  8  9  2  0
  8 13  1  0
 13 12  2  0
 12 11  1  0
 11 10  2  0
 10  9  1  0
  1  8  1  0
  1 14  1  0
 14 15  1  0
 16 17  1  0
 16 21  1  0
 21 20  1  0
 20 19  1  0
 19 18  1  0
 18 17  1  0
 15 16  1  0
 19 22  1  0
 22 23  1  0
 31 24  1  0
 22 25  1  0
 25 26  2  0
 25 27  1  0
 28 29  2  0
 33 28  1  0
 32 33  2  0
 32 31  1  0
 31 30  2  0
 30 29  1  0
 27 28  1  0
 24 34  1  0
 34 35  2  0
 34 36  1  0
  1 37  1  0
  3 38  1  0
  4 39  1  0
  5 40  1  0
  6 41  1  0
  7 42  1  0
  9 43  1  0
 10 44  1  0
 11 45  1  0
 12 46  1  0
 13 47  1  0
 14 48  1  0
 14 49  1  0
 15 50  1  0
 15 51  1  0
 16 52  1  6
 17 53  1  0
 17 54  1  0
 18 55  1  0
 18 56  1  0
 19 57  1  1
 20 58  1  0
 20 59  1  0
 21 60  1  0
 21 61  1  0
 23 62  1  0
 23 63  1  0
 23 64  1  0
 24 65  1  0
 27 66  1  0
 27 67  1  0
 29 68  1  0
 30 69  1  0
 32 70  1  0
 33 71  1  0
 36 72  1  0
 36 73  1  0
 36 74  1  0
M  CHG  1  16   1
M  END
>  <_TriposChargeType>  (9) 
GASTEIGER

>  <Activity>  (9) 
6.17

$$$$
CCR5_74
     RDKit          3D

 83 86  0  0  0  0  0  0  0  0999 V2000
   -4.0175    1.4717   -1.5190 C   0  0  2  0  0  0  0  0  0  0  0  0
   -4.4527    2.7155   -0.7133 C   0  0  0  0  0  0  0  0  0  0  0  0
   -5.8000    3.0946   -0.7802 C   0  0  0  0  0  0  0  0  0  0  0  0
   -6.2812    4.1865   -0.0522 C   0  0  0  0  0  0  0  0  0  0  0  0
   -5.4087    4.9289    0.7465 C   0  0  0  0  0  0  0  0  0  0  0  0
   -4.0588    4.5780    0.8021 C   0  0  0  0  0  0  0  0  0  0  0  0
   -3.5827    3.4868    0.0708 C   0  0  0  0  0  0  0  0  0  0  0  0
   -4.9743    0.2856   -1.3002 C   0  0  0  0  0  0  0  0  0  0  0  0
   -5.5600    0.0512   -0.0504 C   0  0  0  0  0  0  0  0  0  0  0  0
   -6.3647   -1.0727    0.1565 C   0  0  0  0  0  0  0  0  0  0  0  0
   -6.5801   -1.9906   -0.8775 C   0  0  0  0  0  0  0  0  0  0  0  0
   -6.0583   -1.7159   -2.1456 C   0  0  0  0  0  0  0  0  0  0  0  0
   -5.2617   -0.5868   -2.3559 C   0  0  0  0  0  0  0  0  0  0  0  0
   -2.5661    0.9534   -1.2928 C   0  0  0  0  0  0  0  0  0  0  0  0
   -2.3590    0.3177    0.1120 C   0  0  0  0  0  0  0  0  0  0  0  0
   -0.9252    0.2034    0.4923 N   0  0  2  0  0  4  0  0  0  0  0  0
   -0.1142   -0.6783   -0.3849 C   0  0  0  0  0  0  0  0  0  0  0  0
    1.3893   -0.5820   -0.0233 C   0  0  0  0  0  0  0  0  0  0  0  0
    1.6250   -0.9278    1.4663 C   0  0  2  0  0  0  0  0  0  0  0  0
    0.7441    0.0012    2.3420 C   0  0  0  0  0  0  0  0  0  0  0  0
   -0.7451   -0.1234    1.9309 C   0  0  0  0  0  0  0  0  0  0  0  0
    3.0792   -0.8844    1.7126 N   0  0  0  0  0  0  0  0  0  0  0  0
    3.7814    0.3645    2.0481 C   0  0  0  0  0  0  0  0  0  0  0  0
    3.9086    0.5675    3.5807 C   0  0  0  0  0  0  0  0  0  0  0  0
    3.7821   -2.0422    1.5288 C   0  0  0  0  0  0  0  0  0  0  0  0
    3.2200   -3.0846    1.2327 O   0  0  0  0  0  0  0  0  0  0  0  0
    5.2872   -2.1451    1.6388 C   0  0  0  0  0  0  0  0  0  0  0  0
    5.9693   -1.5330    0.4061 C   0  0  0  0  0  0  0  0  0  0  0  0
    7.1179   -0.7448    0.5447 C   0  0  0  0  0  0  0  0  0  0  0  0
    7.7008   -0.1431   -0.5745 C   0  0  0  0  0  0  0  0  0  0  0  0
    7.1425   -0.3271   -1.8421 C   0  0  0  0  0  0  0  0  0  0  0  0
    6.0217   -1.1480   -1.9900 C   0  0  0  0  0  0  0  0  0  0  0  0
    5.4421   -1.7538   -0.8717 C   0  0  0  0  0  0  0  0  0  0  0  0
    7.8860    0.4318   -3.2654 S   0  0  0  0  0  6  0  0  0  0  0  0
    6.8851    0.5806   -4.3035 O   0  0  0  0  0  0  0  0  0  0  0  0
    8.6559    1.5855   -2.8436 O   0  0  0  0  0  0  0  0  0  0  0  0
   -7.2868   -3.1302   -0.6753 N   0  0  0  0  0  0  0  0  0  0  0  0
   -7.0908   -3.8884    0.3718 C   0  0  0  0  0  0  0  0  0  0  0  0
   -6.2650   -3.6399    1.2346 O   0  0  0  0  0  0  0  0  0  0  0  0
    9.0290   -0.8672   -3.7582 C   0  0  0  0  0  0  0  0  0  0  0  0
   -7.9125   -5.1431    0.5231 C   0  0  0  0  0  0  0  0  0  0  0  0
   -3.2213    5.2875    1.5551 F   0  0  0  0  0  0  0  0  0  0  0  0
   -4.0529    1.8412   -2.5225 H   0  0  0  0  0  0  0  0  0  0  0  0
   -6.4485    2.5582   -1.3775 H   0  0  0  0  0  0  0  0  0  0  0  0
   -7.2793    4.4436   -0.1048 H   0  0  0  0  0  0  0  0  0  0  0  0
   -5.7596    5.7316    1.2920 H   0  0  0  0  0  0  0  0  0  0  0  0
   -2.5799    3.2458    0.1081 H   0  0  0  0  0  0  0  0  0  0  0  0
   -5.3963    0.7133    0.7241 H   0  0  0  0  0  0  0  0  0  0  0  0
   -6.8030   -1.2266    1.0781 H   0  0  0  0  0  0  0  0  0  0  0  0
   -6.2630   -2.3518   -2.9322 H   0  0  0  0  0  0  0  0  0  0  0  0
   -4.8828   -0.3951   -3.2965 H   0  0  0  0  0  0  0  0  0  0  0  0
   -1.8721    1.7562   -1.4300 H   0  0  0  0  0  0  0  0  0  0  0  0
   -2.3943    0.1813   -2.0134 H   0  0  0  0  0  0  0  0  0  0  0  0
   -2.8168   -0.6490    0.1404 H   0  0  0  0  0  0  0  0  0  0  0  0
   -2.8198    0.9719    0.8224 H   0  0  0  0  0  0  0  0  0  0  0  0
   -0.5490    1.1389    0.3380 H   0  0  0  0  0  0  0  0  0  0  0  0
   -0.2622   -0.4112   -1.4104 H   0  0  0  0  0  0  0  0  0  0  0  0
   -0.4331   -1.6886   -0.2351 H   0  0  0  0  0  0  0  0  0  0  0  0
    1.9582   -1.2404   -0.6461 H   0  0  0  0  0  0  0  0  0  0  0  0
    1.7096    0.4256   -0.1881 H   0  0  0  0  0  0  0  0  0  0  0  0
    1.3170   -1.9167    1.7348 H   0  0  0  0  0  0  0  0  0  0  0  0
    0.8623   -0.2474    3.3760 H   0  0  0  0  0  0  0  0  0  0  0  0
    1.0576    1.0130    2.1905 H   0  0  0  0  0  0  0  0  0  0  0  0
   -1.0980   -1.1140    2.1285 H   0  0  0  0  0  0  0  0  0  0  0  0
   -1.3139    0.5746    2.5090 H   0  0  0  0  0  0  0  0  0  0  0  0
    3.2684    1.1969    1.6135 H   0  0  0  0  0  0  0  0  0  0  0  0
    4.7713    0.2965    1.6477 H   0  0  0  0  0  0  0  0  0  0  0  0
    2.9328    0.6396    4.0136 H   0  0  0  0  0  0  0  0  0  0  0  0
    4.4737    1.4513    3.7917 H   0  0  0  0  0  0  0  0  0  0  0  0
    4.4207   -0.2706    4.0052 H   0  0  0  0  0  0  0  0  0  0  0  0
    5.5773   -3.1693    1.7470 H   0  0  0  0  0  0  0  0  0  0  0  0
    5.5997   -1.5972    2.5031 H   0  0  0  0  0  0  0  0  0  0  0  0
    7.5365   -0.6072    1.4779 H   0  0  0  0  0  0  0  0  0  0  0  0
    8.5460    0.4387   -0.4641 H   0  0  0  0  0  0  0  0  0  0  0  0
    5.6207   -1.3075   -2.9274 H   0  0  0  0  0  0  0  0  0  0  0  0
    4.6207   -2.3675   -0.9887 H   0  0  0  0  0  0  0  0  0  0  0  0
   -7.9672   -3.3943   -1.3361 H   0  0  0  0  0  0  0  0  0  0  0  0
    9.5697   -0.5563   -4.6276 H   0  0  0  0  0  0  0  0  0  0  0  0
    8.4962   -1.7734   -3.9577 H   0  0  0  0  0  0  0  0  0  0  0  0
    9.7193   -1.0493   -2.9612 H   0  0  0  0  0  0  0  0  0  0  0  0
   -8.5888   -5.2288   -0.3016 H   0  0  0  0  0  0  0  0  0  0  0  0
   -8.4541   -5.1222    1.4457 H   0  0  0  0  0  0  0  0  0  0  0  0
   -7.2605   -5.9915    0.5329 H   0  0  0  0  0  0  0  0  0  0  0  0
  1  2  1  0
  2  3  2  0
  2  7  1  0
  7  6  2  0
  6  5  1  0
  5  4  2  0
  4  3  1  0
  8  9  2  0
  8 13  1  0
 13 12  2  0
 12 11  1  0
 11 10  2  0
 10  9  1  0
  1  8  1  0
  1 14  1  0
 14 15  1  0
 16 17  1  0
 16 21  1  0
 21 20  1  0
 20 19  1  0
 19 18  1  0
 18 17  1  0
 15 16  1  0
 19 22  1  0
 22 23  1  0
 23 24  1  0
 22 25  1  0
 25 26  2  0
 25 27  1  0
 28 29  2  0
 28 33  1  0
 33 32  2  0
 32 31  1  0
 31 30  2  0
 30 29  1  0
 27 28  1  0
 34 35  2  0
 34 36  2  0
 31 34  1  0
 11 37  1  0
 37 38  1  0
 38 39  2  0
 34 40  1  0
 38 41  1  0
  6 42  1  0
  1 43  1  6
  3 44  1  0
  4 45  1  0
  5 46  1  0
  7 47  1  0
  9 48  1  0
 10 49  1  0
 12 50  1  0
 13 51  1  0
 14 52  1  0
 14 53  1  0
 15 54  1  0
 15 55  1  0
 16 56  1  1
 17 57  1  0
 17 58  1  0
 18 59  1  0
 18 60  1  0
 19 61  1  6
 20 62  1  0
 20 63  1  0
 21 64  1  0
 21 65  1  0
 23 66  1  0
 23 67  1  0
 24 68  1  0
 24 69  1  0
 24 70  1  0
 27 71  1  0
 27 72  1  0
 29 73  1  0
 30 74  1  0
 32 75  1  0
 33 76  1  0
 37 77  1  0
 40 78  1  0
 40 79  1  0
 40 80  1  0
 41 81  1  0
 41 82  1  0
 41 83  1  0
M  CHG  1  16   1
M  END
>  <_TriposChargeType>  (10) 
GASTEIGER

>  <Activity>  (10) 
8.10

$$$$
CCR5_06
     RDKit          3D

 67 70  0  0  0  0  0  0  0  0999 V2000
   -3.9943    1.4321   -1.5041 C   0  0  0  0  0  0  0  0  0  0  0  0
   -4.4351    2.6770   -0.7025 C   0  0  0  0  0  0  0  0  0  0  0  0
   -5.7829    3.0533   -0.7755 C   0  0  0  0  0  0  0  0  0  0  0  0
   -6.2719    4.1351   -0.0382 C   0  0  0  0  0  0  0  0  0  0  0  0
   -5.4073    4.8738    0.7723 C   0  0  0  0  0  0  0  0  0  0  0  0
   -4.0542    4.5323    0.8262 C   0  0  0  0  0  0  0  0  0  0  0  0
   -3.5695    3.4510    0.0837 C   0  0  0  0  0  0  0  0  0  0  0  0
   -4.9729    0.2592   -1.3098 C   0  0  0  0  0  0  0  0  0  0  0  0
   -5.5926    0.0344   -0.0740 C   0  0  0  0  0  0  0  0  0  0  0  0
   -6.4846   -1.0292    0.0893 C   0  0  0  0  0  0  0  0  0  0  0  0
   -6.7626   -1.8809   -0.9830 C   0  0  0  0  0  0  0  0  0  0  0  0
   -6.1442   -1.6664   -2.2174 C   0  0  0  0  0  0  0  0  0  0  0  0
   -5.2521   -0.6023   -2.3776 C   0  0  0  0  0  0  0  0  0  0  0  0
   -2.5492    0.9046   -1.2623 C   0  0  0  0  0  0  0  0  0  0  0  0
   -2.3466    0.2910    0.1522 C   0  0  0  0  0  0  0  0  0  0  0  0
   -0.9053    0.1872    0.5070 N   0  0  2  0  0  4  0  0  0  0  0  0
   -0.1479   -0.8303   -0.2648 C   0  0  0  0  0  0  0  0  0  0  0  0
    1.3725   -0.7377    0.0230 C   0  0  0  0  0  0  0  0  0  0  0  0
    1.6583   -0.8783    1.5392 C   0  0  2  0  0  0  0  0  0  0  0  0
    0.8488    0.2221    2.2738 C   0  0  0  0  0  0  0  0  0  0  0  0
   -0.6632    0.0783    1.9681 C   0  0  0  0  0  0  0  0  0  0  0  0
    3.1180   -0.8654    1.7427 N   0  0  0  0  0  0  0  0  0  0  0  0
    3.8539    0.3532    2.1082 C   0  0  0  0  0  0  0  0  0  0  0  0
    8.9921    1.5567    0.5738 Cl  0  0  0  0  0  0  0  0  0  0  0  0
    3.7949   -2.0122    1.4415 C   0  0  0  0  0  0  0  0  0  0  0  0
    3.2007   -3.0315    1.1281 O   0  0  0  0  0  0  0  0  0  0  0  0
    5.3024   -2.1177    1.4542 C   0  0  0  0  0  0  0  0  0  0  0  0
    5.9417   -1.0889    0.5113 C   0  0  0  0  0  0  0  0  0  0  0  0
    7.0543   -0.3403    0.9127 C   0  0  0  0  0  0  0  0  0  0  0  0
    7.6078    0.6159    0.0569 C   0  0  0  0  0  0  0  0  0  0  0  0
    7.0578    0.8223   -1.2108 C   0  0  0  0  0  0  0  0  0  0  0  0
    5.9571    0.0668   -1.6235 C   0  0  0  0  0  0  0  0  0  0  0  0
    5.4064   -0.8904   -0.7666 C   0  0  0  0  0  0  0  0  0  0  0  0
   -4.0032    1.8017   -2.5082 H   0  0  0  0  0  0  0  0  0  0  0  0
   -6.4254    2.5225   -1.3841 H   0  0  0  0  0  0  0  0  0  0  0  0
   -7.2710    4.3878   -0.0926 H   0  0  0  0  0  0  0  0  0  0  0  0
   -5.7657    5.6665    1.3275 H   0  0  0  0  0  0  0  0  0  0  0  0
   -3.4092    5.0804    1.4166 H   0  0  0  0  0  0  0  0  0  0  0  0
   -2.5641    3.2202    0.1147 H   0  0  0  0  0  0  0  0  0  0  0  0
   -5.3890    0.6588    0.7220 H   0  0  0  0  0  0  0  0  0  0  0  0
   -6.9384   -1.1857    1.0029 H   0  0  0  0  0  0  0  0  0  0  0  0
   -7.4223   -2.6655   -0.8636 H   0  0  0  0  0  0  0  0  0  0  0  0
   -6.3462   -2.2940   -3.0114 H   0  0  0  0  0  0  0  0  0  0  0  0
   -4.7955   -0.4504   -3.2905 H   0  0  0  0  0  0  0  0  0  0  0  0
   -1.8477    1.6985   -1.4127 H   0  0  0  0  0  0  0  0  0  0  0  0
   -2.3859    0.1164   -1.9673 H   0  0  0  0  0  0  0  0  0  0  0  0
   -2.8027   -0.6759    0.1977 H   0  0  0  0  0  0  0  0  0  0  0  0
   -2.8114    0.9438    0.8612 H   0  0  0  0  0  0  0  0  0  0  0  0
   -0.5202    1.0848    0.2130 H   0  0  0  0  0  0  0  0  0  0  0  0
   -0.3295   -0.7040   -1.3117 H   0  0  0  0  0  0  0  0  0  0  0  0
   -0.4855   -1.7984    0.0413 H   0  0  0  0  0  0  0  0  0  0  0  0
    1.8947   -1.4976   -0.5199 H   0  0  0  0  0  0  0  0  0  0  0  0
    1.7169    0.2238   -0.2961 H   0  0  0  0  0  0  0  0  0  0  0  0
    1.3324   -1.8064    1.9602 H   0  0  0  0  0  0  0  0  0  0  0  0
    1.0179    0.1602    3.3285 H   0  0  0  0  0  0  0  0  0  0  0  0
    1.1779    1.1782    1.9239 H   0  0  0  0  0  0  0  0  0  0  0  0
   -1.0246   -0.8607    2.3321 H   0  0  0  0  0  0  0  0  0  0  0  0
   -1.1900    0.8672    2.4631 H   0  0  0  0  0  0  0  0  0  0  0  0
    3.1602    1.1428    2.3085 H   0  0  0  0  0  0  0  0  0  0  0  0
    4.5186    0.6354    1.3186 H   0  0  0  0  0  0  0  0  0  0  0  0
    4.4341    0.1635    2.9870 H   0  0  0  0  0  0  0  0  0  0  0  0
    5.6014   -3.1058    1.1727 H   0  0  0  0  0  0  0  0  0  0  0  0
    5.6409   -1.9119    2.4482 H   0  0  0  0  0  0  0  0  0  0  0  0
    7.4680   -0.4953    1.8454 H   0  0  0  0  0  0  0  0  0  0  0  0
    7.4637    1.5314   -1.8412 H   0  0  0  0  0  0  0  0  0  0  0  0
    5.5510    0.2155   -2.5605 H   0  0  0  0  0  0  0  0  0  0  0  0
    4.6001   -1.4542   -1.0781 H   0  0  0  0  0  0  0  0  0  0  0  0
  1  2  1  0
  2  3  2  0
  2  7  1  0
  7  6  2  0
  6  5  1  0
  5  4  2  0
  4  3  1  0
  8  9  2  0
  8 13  1  0
 13 12  2  0
 12 11  1  0
 11 10  2  0
 10  9  1  0
  1  8  1  0
  1 14  1  0
 14 15  1  0
 16 17  1  0
 16 21  1  0
 21 20  1  0
 20 19  1  0
 19 18  1  0
 18 17  1  0
 15 16  1  0
 19 22  1  0
 22 23  1  0
 30 24  1  0
 22 25  1  0
 25 26  2  0
 25 27  1  0
 28 29  2  0
 33 28  1  0
 32 33  2  0
 31 32  1  0
 31 30  2  0
 30 29  1  0
 27 28  1  0
  1 34  1  0
  3 35  1  0
  4 36  1  0
  5 37  1  0
  6 38  1  0
  7 39  1  0
  9 40  1  0
 10 41  1  0
 11 42  1  0
 12 43  1  0
 13 44  1  0
 14 45  1  0
 14 46  1  0
 15 47  1  0
 15 48  1  0
 16 49  1  6
 17 50  1  0
 17 51  1  0
 18 52  1  0
 18 53  1  0
 19 54  1  1
 20 55  1  0
 20 56  1  0
 21 57  1  0
 21 58  1  0
 23 59  1  0
 23 60  1  0
 23 61  1  0
 27 62  1  0
 27 63  1  0
 29 64  1  0
 31 65  1  0
 32 66  1  0
 33 67  1  0
M  CHG  1  16   1
M  END
>  <_TriposChargeType>  (11) 
GASTEIGER

>  <Activity>  (11) 
5.66

$$$$
CCR5_12
     RDKit          3D

 67 70  0  0  0  0  0  0  0  0999 V2000
   -3.9951    1.4281   -1.5041 C   0  0  0  0  0  0  0  0  0  0  0  0
   -4.4310    2.6752   -0.7035 C   0  0  0  0  0  0  0  0  0  0  0  0
   -5.7743    3.0644   -0.7898 C   0  0  0  0  0  0  0  0  0  0  0  0
   -6.2603    4.1509   -0.0572 C   0  0  0  0  0  0  0  0  0  0  0  0
   -5.3971    4.8798    0.7636 C   0  0  0  0  0  0  0  0  0  0  0  0
   -4.0484    4.5238    0.8327 C   0  0  0  0  0  0  0  0  0  0  0  0
   -3.5664    3.4386    0.0941 C   0  0  0  0  0  0  0  0  0  0  0  0
   -4.9765    0.2583   -1.3055 C   0  0  0  0  0  0  0  0  0  0  0  0
   -5.6020    0.0431   -0.0710 C   0  0  0  0  0  0  0  0  0  0  0  0
   -6.4962   -1.0182    0.0957 C   0  0  0  0  0  0  0  0  0  0  0  0
   -6.7703   -1.8772   -0.9716 C   0  0  0  0  0  0  0  0  0  0  0  0
   -6.1460   -1.6723   -2.2047 C   0  0  0  0  0  0  0  0  0  0  0  0
   -5.2521   -0.6102   -2.3685 C   0  0  0  0  0  0  0  0  0  0  0  0
   -2.5506    0.8980   -1.2651 C   0  0  0  0  0  0  0  0  0  0  0  0
   -2.3499    0.2746    0.1454 C   0  0  0  0  0  0  0  0  0  0  0  0
   -0.9100    0.1773    0.5069 N   0  0  2  0  0  4  0  0  0  0  0  0
   -0.1361   -0.8149   -0.2813 C   0  0  0  0  0  0  0  0  0  0  0  0
    1.3813   -0.7128    0.0196 C   0  0  0  0  0  0  0  0  0  0  0  0
    1.6573   -0.8808    1.5347 C   0  0  2  0  0  0  0  0  0  0  0  0
    0.8309    0.1963    2.2851 C   0  0  0  0  0  0  0  0  0  0  0  0
   -0.6772    0.0400    1.9672 C   0  0  0  0  0  0  0  0  0  0  0  0
    3.1154   -0.8592    1.7490 N   0  0  0  0  0  0  0  0  0  0  0  0
    3.8404    0.3593    2.1350 C   0  0  0  0  0  0  0  0  0  0  0  0
    7.5451    1.8023   -2.0059 F   0  0  0  0  0  0  0  0  0  0  0  0
    3.8039   -1.9961    1.4366 C   0  0  0  0  0  0  0  0  0  0  0  0
    3.2210   -3.0155    1.1030 O   0  0  0  0  0  0  0  0  0  0  0  0
    5.3123   -2.0885    1.4597 C   0  0  0  0  0  0  0  0  0  0  0  0
    5.9415   -1.0477    0.5231 C   0  0  0  0  0  0  0  0  0  0  0  0
    7.0171   -0.2564    0.9436 C   0  0  0  0  0  0  0  0  0  0  0  0
    7.5580    0.7083    0.0883 C   0  0  0  0  0  0  0  0  0  0  0  0
    7.0334    0.8800   -1.1948 C   0  0  0  0  0  0  0  0  0  0  0  0
    5.9715    0.0816   -1.6252 C   0  0  0  0  0  0  0  0  0  0  0  0
    5.4313   -0.8833   -0.7701 C   0  0  0  0  0  0  0  0  0  0  0  0
   -4.0053    1.7956   -2.5090 H   0  0  0  0  0  0  0  0  0  0  0  0
   -6.4158    2.5398   -1.4049 H   0  0  0  0  0  0  0  0  0  0  0  0
   -7.2560    4.4142   -0.1228 H   0  0  0  0  0  0  0  0  0  0  0  0
   -5.7533    5.6759    1.3152 H   0  0  0  0  0  0  0  0  0  0  0  0
   -3.4046    5.0641    1.4316 H   0  0  0  0  0  0  0  0  0  0  0  0
   -2.5640    3.1970    0.1364 H   0  0  0  0  0  0  0  0  0  0  0  0
   -5.4012    0.6729    0.7215 H   0  0  0  0  0  0  0  0  0  0  0  0
   -6.9545   -1.1675    1.0082 H   0  0  0  0  0  0  0  0  0  0  0  0
   -7.4315   -2.6602   -0.8496 H   0  0  0  0  0  0  0  0  0  0  0  0
   -6.3450   -2.3055   -2.9950 H   0  0  0  0  0  0  0  0  0  0  0  0
   -4.7915   -0.4650   -3.2805 H   0  0  0  0  0  0  0  0  0  0  0  0
   -1.8485    1.6924   -1.4094 H   0  0  0  0  0  0  0  0  0  0  0  0
   -2.3871    0.1148   -1.9755 H   0  0  0  0  0  0  0  0  0  0  0  0
   -2.7998   -0.6955    0.1812 H   0  0  0  0  0  0  0  0  0  0  0  0
   -2.8220    0.9193    0.8571 H   0  0  0  0  0  0  0  0  0  0  0  0
   -0.5319    1.0843    0.2336 H   0  0  0  0  0  0  0  0  0  0  0  0
   -0.3116   -0.6675   -1.3265 H   0  0  0  0  0  0  0  0  0  0  0  0
   -0.4654   -1.7930    0.0013 H   0  0  0  0  0  0  0  0  0  0  0  0
    1.9152   -1.4564   -0.5344 H   0  0  0  0  0  0  0  0  0  0  0  0
    1.7183    0.2582   -0.2777 H   0  0  0  0  0  0  0  0  0  0  0  0
    1.3375   -1.8200    1.9355 H   0  0  0  0  0  0  0  0  0  0  0  0
    0.9944    0.1164    3.3395 H   0  0  0  0  0  0  0  0  0  0  0  0
    1.1508    1.1628    1.9557 H   0  0  0  0  0  0  0  0  0  0  0  0
   -1.0289   -0.9112    2.3084 H   0  0  0  0  0  0  0  0  0  0  0  0
   -1.2179    0.8106    2.4759 H   0  0  0  0  0  0  0  0  0  0  0  0
    3.1400    1.1413    2.3419 H   0  0  0  0  0  0  0  0  0  0  0  0
    4.5075    0.6568    1.3531 H   0  0  0  0  0  0  0  0  0  0  0  0
    4.4170    0.1618    3.0144 H   0  0  0  0  0  0  0  0  0  0  0  0
    5.6230   -3.0720    1.1750 H   0  0  0  0  0  0  0  0  0  0  0  0
    5.6453   -1.8872    2.4565 H   0  0  0  0  0  0  0  0  0  0  0  0
    7.4121   -0.3856    1.8882 H   0  0  0  0  0  0  0  0  0  0  0  0
    8.3460    1.2944    0.4054 H   0  0  0  0  0  0  0  0  0  0  0  0
    5.5856    0.2040   -2.5745 H   0  0  0  0  0  0  0  0  0  0  0  0
    4.6522   -1.4776   -1.0939 H   0  0  0  0  0  0  0  0  0  0  0  0
  1  2  1  0
  2  3  2  0
  2  7  1  0
  7  6  2  0
  6  5  1  0
  5  4  2  0
  4  3  1  0
  8  9  2  0
  8 13  1  0
 13 12  2  0
 12 11  1  0
 11 10  2  0
 10  9  1  0
  1  8  1  0
  1 14  1  0
 14 15  1  0
 16 17  1  0
 16 21  1  0
 21 20  1  0
 20 19  1  0
 19 18  1  0
 18 17  1  0
 15 16  1  0
 19 22  1  0
 22 23  1  0
 31 24  1  0
 22 25  1  0
 25 26  2  0
 25 27  1  0
 28 29  2  0
 33 28  1  0
 32 33  2  0
 32 31  1  0
 31 30  2  0
 30 29  1  0
 27 28  1  0
  1 34  1  0
  3 35  1  0
  4 36  1  0
  5 37  1  0
  6 38  1  0
  7 39  1  0
  9 40  1  0
 10 41  1  0
 11 42  1  0
 12 43  1  0
 13 44  1  0
 14 45  1  0
 14 46  1  0
 15 47  1  0
 15 48  1  0
 16 49  1  6
 17 50  1  0
 17 51  1  0
 18 52  1  0
 18 53  1  0
 19 54  1  1
 20 55  1  0
 20 56  1  0
 21 57  1  0
 21 58  1  0
 23 59  1  0
 23 60  1  0
 23 61  1  0
 27 62  1  0
 27 63  1  0
 29 64  1  0
 30 65  1  0
 32 66  1  0
 33 67  1  0
M  CHG  1  16   1
M  END
>  <_TriposChargeType>  (12) 
GASTEIGER

>  <Activity>  (12) 
6.18

$$$$
CCR5_45
     RDKit          3D

 70 73  0  0  0  0  0  0  0  0999 V2000
   -4.0435    1.4693   -1.4991 C   0  0  0  0  0  0  0  0  0  0  0  0
   -4.4393    2.6807   -0.6269 C   0  0  0  0  0  0  0  0  0  0  0  0
   -5.7678    3.1195   -0.7008 C   0  0  0  0  0  0  0  0  0  0  0  0
   -6.2180    4.1935    0.0719 C   0  0  0  0  0  0  0  0  0  0  0  0
   -5.3347    4.8536    0.9287 C   0  0  0  0  0  0  0  0  0  0  0  0
   -4.0034    4.4373    0.9996 C   0  0  0  0  0  0  0  0  0  0  0  0
   -3.5569    3.3644    0.2220 C   0  0  0  0  0  0  0  0  0  0  0  0
   -5.0146    0.2914   -1.3004 C   0  0  0  0  0  0  0  0  0  0  0  0
   -5.6084    0.0468   -0.0557 C   0  0  0  0  0  0  0  0  0  0  0  0
   -6.4930   -1.0227    0.1102 C   0  0  0  0  0  0  0  0  0  0  0  0
   -6.7885   -1.8608   -0.9679 C   0  0  0  0  0  0  0  0  0  0  0  0
   -6.1958   -1.6265   -2.2113 C   0  0  0  0  0  0  0  0  0  0  0  0
   -5.3121   -0.5557   -2.3746 C   0  0  0  0  0  0  0  0  0  0  0  0
   -2.5855    0.9413   -1.3604 C   0  0  0  0  0  0  0  0  0  0  0  0
   -2.3297    0.1871   -0.0241 C   0  0  0  0  0  0  0  0  0  0  0  0
   -0.8871    0.0893    0.3258 N   0  0  2  0  0  4  0  0  0  0  0  0
   -0.0202   -0.5644   -0.6876 C   0  0  0  0  0  0  0  0  0  0  0  0
    1.4712   -0.3711   -0.3109 C   0  0  0  0  0  0  0  0  0  0  0  0
    1.7502   -0.9567    1.0976 C   0  0  2  0  0  0  0  0  0  0  0  0
    0.8087   -0.2875    2.1275 C   0  0  0  0  0  0  0  0  0  0  0  0
   -0.6688   -0.4565    1.6917 C   0  0  0  0  0  0  0  0  0  0  0  0
    3.1623   -0.8383    1.5054 N   0  0  0  0  0  0  0  0  0  0  0  0
    3.8908    0.4312    1.3610 C   0  0  0  0  0  0  0  0  0  0  0  0
    4.6637    0.8028    2.6022 C   0  0  0  0  0  0  0  0  0  0  0  0
    3.7246   -1.9025    2.1543 C   0  0  0  0  0  0  0  0  0  0  0  0
    2.9703   -2.7122    2.6702 O   0  0  0  0  0  0  0  0  0  0  0  0
    4.9988   -2.1674    2.2968 N   0  0  0  0  0  0  0  0  0  0  0  0
    6.0004   -1.5379    1.6413 C   0  0  0  0  0  0  0  0  0  0  0  0
    7.0708   -0.9914    2.3560 C   0  0  0  0  0  0  0  0  0  0  0  0
    8.1042   -0.3351    1.6810 C   0  0  0  0  0  0  0  0  0  0  0  0
    8.0734   -0.2324    0.2872 C   0  0  0  0  0  0  0  0  0  0  0  0
    7.0210   -0.8058   -0.4321 C   0  0  0  0  0  0  0  0  0  0  0  0
    5.9946   -1.4716    0.2442 C   0  0  0  0  0  0  0  0  0  0  0  0
    5.7548    1.5772    2.5624 C   0  0  0  0  0  0  0  0  0  0  0  0
   -4.1059    1.8733   -2.4879 H   0  0  0  0  0  0  0  0  0  0  0  0
   -6.4252    2.6415   -1.3367 H   0  0  0  0  0  0  0  0  0  0  0  0
   -7.2020    4.4983    0.0094 H   0  0  0  0  0  0  0  0  0  0  0  0
   -5.6634    5.6437    1.5056 H   0  0  0  0  0  0  0  0  0  0  0  0
   -3.3460    4.9239    1.6290 H   0  0  0  0  0  0  0  0  0  0  0  0
   -2.5683    3.0728    0.2733 H   0  0  0  0  0  0  0  0  0  0  0  0
   -5.3912    0.6607    0.7449 H   0  0  0  0  0  0  0  0  0  0  0  0
   -6.9284   -1.1935    1.0302 H   0  0  0  0  0  0  0  0  0  0  0  0
   -7.4422   -2.6501   -0.8463 H   0  0  0  0  0  0  0  0  0  0  0  0
   -6.4105   -2.2443   -3.0096 H   0  0  0  0  0  0  0  0  0  0  0  0
   -4.8754   -0.3883   -3.2946 H   0  0  0  0  0  0  0  0  0  0  0  0
   -1.8985    1.7568   -1.4494 H   0  0  0  0  0  0  0  0  0  0  0  0
   -2.4362    0.2335   -2.1489 H   0  0  0  0  0  0  0  0  0  0  0  0
   -2.7533   -0.7939   -0.0786 H   0  0  0  0  0  0  0  0  0  0  0  0
   -2.7991    0.7579    0.7497 H   0  0  0  0  0  0  0  0  0  0  0  0
   -0.5739    1.0600    0.3245 H   0  0  0  0  0  0  0  0  0  0  0  0
   -0.2121   -0.1545   -1.6572 H   0  0  0  0  0  0  0  0  0  0  0  0
   -0.2399   -1.6114   -0.7088 H   0  0  0  0  0  0  0  0  0  0  0  0
    2.0985   -0.8444   -1.0371 H   0  0  0  0  0  0  0  0  0  0  0  0
    1.6883    0.6765   -0.2961 H   0  0  0  0  0  0  0  0  0  0  0  0
    1.5504   -2.0071    1.0578 H   0  0  0  0  0  0  0  0  0  0  0  0
    0.9582   -0.7166    3.0962 H   0  0  0  0  0  0  0  0  0  0  0  0
    1.0362    0.7570    2.1733 H   0  0  0  0  0  0  0  0  0  0  0  0
   -0.9427   -1.4904    1.7206 H   0  0  0  0  0  0  0  0  0  0  0  0
   -1.2844    0.0915    2.3741 H   0  0  0  0  0  0  0  0  0  0  0  0
    4.5569    0.3718    0.5257 H   0  0  0  0  0  0  0  0  0  0  0  0
    3.1617    1.1978    1.2011 H   0  0  0  0  0  0  0  0  0  0  0  0
    4.3394    0.4470    3.5151 H   0  0  0  0  0  0  0  0  0  0  0  0
    5.2469   -2.8795    2.9297 H   0  0  0  0  0  0  0  0  0  0  0  0
    7.0980   -1.0728    3.3844 H   0  0  0  0  0  0  0  0  0  0  0  0
    8.8895    0.0734    2.2115 H   0  0  0  0  0  0  0  0  0  0  0  0
    8.8273    0.2665   -0.2105 H   0  0  0  0  0  0  0  0  0  0  0  0
    7.0017   -0.7377   -1.4617 H   0  0  0  0  0  0  0  0  0  0  0  0
    5.2305   -1.9154   -0.2888 H   0  0  0  0  0  0  0  0  0  0  0  0
    6.0953    1.9430    1.6595 H   0  0  0  0  0  0  0  0  0  0  0  0
    6.2555    1.8084    3.4347 H   0  0  0  0  0  0  0  0  0  0  0  0
  1  2  1  0
  2  3  2  0
  2  7  1  0
  7  6  2  0
  6  5  1  0
  5  4  2  0
  4  3  1  0
  8  9  2  0
  8 13  1  0
 13 12  2  0
 12 11  1  0
 11 10  2  0
 10  9  1  0
  1  8  1  0
  1 14  1  0
 14 15  1  0
 16 17  1  0
 16 21  1  0
 21 20  1  0
 20 19  1  0
 19 18  1  0
 18 17  1  0
 15 16  1  0
 19 22  1  0
 23 24  1  0
 24 34  2  0
 22 25  1  0
 25 26  2  0
 25 27  1  0
 28 29  2  0
 28 33  1  0
 33 32  2  0
 32 31  1  0
 31 30  2  0
 30 29  1  0
 27 28  1  0
 22 23  1  0
  1 35  1  0
  3 36  1  0
  4 37  1  0
  5 38  1  0
  6 39  1  0
  7 40  1  0
  9 41  1  0
 10 42  1  0
 11 43  1  0
 12 44  1  0
 13 45  1  0
 14 46  1  0
 14 47  1  0
 15 48  1  0
 15 49  1  0
 16 50  1  1
 17 51  1  0
 17 52  1  0
 18 53  1  0
 18 54  1  0
 19 55  1  6
 20 56  1  0
 20 57  1  0
 21 58  1  0
 21 59  1  0
 23 60  1  0
 23 61  1  0
 24 62  1  0
 27 63  1  0
 29 64  1  0
 30 65  1  0
 31 66  1  0
 32 67  1  0
 33 68  1  0
 34 69  1  0
 34 70  1  0
M  CHG  1  16   1
M  END
>  <_TriposChargeType>  (13) 
GASTEIGER

>  <Activity>  (13) 
5.68

$$$$
CCR5_61
     RDKit          3D

 79 82  0  0  0  0  0  0  0  0999 V2000
   -4.0012    1.4147   -1.5072 C   0  0  2  0  0  0  0  0  0  0  0  0
   -4.4153    2.6763   -0.7184 C   0  0  0  0  0  0  0  0  0  0  0  0
   -5.7404    3.1123   -0.8504 C   0  0  0  0  0  0  0  0  0  0  0  0
   -6.2090    4.2237   -0.1447 C   0  0  0  0  0  0  0  0  0  0  0  0
   -5.3470    4.9272    0.6991 C   0  0  0  0  0  0  0  0  0  0  0  0
   -4.0172    4.5181    0.8215 C   0  0  0  0  0  0  0  0  0  0  0  0
   -3.5522    3.4073    0.1106 C   0  0  0  0  0  0  0  0  0  0  0  0
   -4.9950    0.2614   -1.2786 C   0  0  0  0  0  0  0  0  0  0  0  0
   -5.6308    0.0888   -0.0431 C   0  0  0  0  0  0  0  0  0  0  0  0
   -6.5364   -0.9582    0.1502 C   0  0  0  0  0  0  0  0  0  0  0  0
   -6.8134   -1.8549   -0.8870 C   0  0  0  0  0  0  0  0  0  0  0  0
   -6.1790   -1.6849   -2.1217 C   0  0  0  0  0  0  0  0  0  0  0  0
   -5.2741   -0.6370   -2.3146 C   0  0  0  0  0  0  0  0  0  0  0  0
   -2.5574    0.8773   -1.2811 C   0  0  0  0  0  0  0  0  0  0  0  0
   -2.3617    0.2131    0.1118 C   0  0  0  0  0  0  0  0  0  0  0  0
   -0.9332    0.1154    0.5158 N   0  0  2  0  0  4  0  0  0  0  0  0
   -0.0571   -0.6520   -0.4050 C   0  0  0  0  0  0  0  0  0  0  0  0
    1.4303   -0.4923   -0.0002 C   0  0  0  0  0  0  0  0  0  0  0  0
    1.6600   -0.9343    1.4649 C   0  0  2  0  0  0  0  0  0  0  0  0
    0.7004   -0.1369    2.3873 C   0  0  0  0  0  0  0  0  0  0  0  0
   -0.7688   -0.3180    1.9275 C   0  0  0  0  0  0  0  0  0  0  0  0
    3.1035   -0.8147    1.7492 N   0  0  0  0  0  0  0  0  0  0  0  0
    3.7118    0.4428    2.2124 C   0  0  0  0  0  0  0  0  0  0  0  0
    3.7925    0.5192    3.7598 C   0  0  0  0  0  0  0  0  0  0  0  0
    3.8885   -1.9006    1.4789 C   0  0  0  0  0  0  0  0  0  0  0  0
    3.4051   -2.9440    1.0688 O   0  0  0  0  0  0  0  0  0  0  0  0
    5.3940   -1.9161    1.6272 C   0  0  0  0  0  0  0  0  0  0  0  0
    6.0753   -1.1395    0.4902 C   0  0  0  0  0  0  0  0  0  0  0  0
    7.1807   -0.3208    0.7504 C   0  0  0  0  0  0  0  0  0  0  0  0
    7.7631    0.4275   -0.2768 C   0  0  0  0  0  0  0  0  0  0  0  0
    7.2473    0.3616   -1.5737 C   0  0  0  0  0  0  0  0  0  0  0  0
    6.1709   -0.4866   -1.8458 C   0  0  0  0  0  0  0  0  0  0  0  0
    5.5918   -1.2385   -0.8197 C   0  0  0  0  0  0  0  0  0  0  0  0
    7.9914    1.3075   -2.8800 S   0  0  0  0  0  6  0  0  0  0  0  0
    7.0228    1.4983   -3.9417 O   0  0  0  0  0  0  0  0  0  0  0  0
    8.6648    2.4586   -2.3113 O   0  0  0  0  0  0  0  0  0  0  0  0
   -7.7974   -3.0138   -0.6863 C   0  0  0  0  0  0  0  0  0  0  0  0
    9.2380    0.1417   -3.4489 C   0  0  0  0  0  0  0  0  0  0  0  0
   -4.0183    1.7635   -2.5186 H   0  0  0  0  0  0  0  0  0  0  0  0
   -6.3813    2.6039   -1.4796 H   0  0  0  0  0  0  0  0  0  0  0  0
   -7.1910    4.5242   -0.2470 H   0  0  0  0  0  0  0  0  0  0  0  0
   -5.6902    5.7438    1.2286 H   0  0  0  0  0  0  0  0  0  0  0  0
   -3.3747    5.0380    1.4395 H   0  0  0  0  0  0  0  0  0  0  0  0
   -2.5640    3.1226    0.1969 H   0  0  0  0  0  0  0  0  0  0  0  0
   -5.4290    0.7402    0.7315 H   0  0  0  0  0  0  0  0  0  0  0  0
   -7.0035   -1.0703    1.0636 H   0  0  0  0  0  0  0  0  0  0  0  0
   -6.3802   -2.3374   -2.8955 H   0  0  0  0  0  0  0  0  0  0  0  0
   -4.8081   -0.5250   -3.2285 H   0  0  0  0  0  0  0  0  0  0  0  0
   -1.8546    1.6752   -1.4003 H   0  0  0  0  0  0  0  0  0  0  0  0
   -2.3915    0.1156   -2.0141 H   0  0  0  0  0  0  0  0  0  0  0  0
   -2.8022   -0.7620    0.1101 H   0  0  0  0  0  0  0  0  0  0  0  0
   -2.8459    0.8432    0.8284 H   0  0  0  0  0  0  0  0  0  0  0  0
   -0.5978    1.0757    0.4404 H   0  0  0  0  0  0  0  0  0  0  0  0
   -0.2014   -0.3193   -1.4117 H   0  0  0  0  0  0  0  0  0  0  0  0
   -0.3183   -1.6875   -0.3389 H   0  0  0  0  0  0  0  0  0  0  0  0
    2.0512   -1.0656   -0.6565 H   0  0  0  0  0  0  0  0  0  0  0  0
    1.6890    0.5428   -0.0811 H   0  0  0  0  0  0  0  0  0  0  0  0
    1.4144   -1.9590    1.6507 H   0  0  0  0  0  0  0  0  0  0  0  0
    0.8109   -0.4615    3.4009 H   0  0  0  0  0  0  0  0  0  0  0  0
    0.9517    0.9013    2.3249 H   0  0  0  0  0  0  0  0  0  0  0  0
   -1.0630   -1.3413    2.0338 H   0  0  0  0  0  0  0  0  0  0  0  0
   -1.3949    0.2920    2.5446 H   0  0  0  0  0  0  0  0  0  0  0  0
    3.1534    1.2749    1.8373 H   0  0  0  0  0  0  0  0  0  0  0  0
    4.7129    0.4740    1.8359 H   0  0  0  0  0  0  0  0  0  0  0  0
    2.8050    0.4903    4.1708 H   0  0  0  0  0  0  0  0  0  0  0  0
    4.2929    1.4158    4.0608 H   0  0  0  0  0  0  0  0  0  0  0  0
    4.3500   -0.3180    4.1247 H   0  0  0  0  0  0  0  0  0  0  0  0
    5.7486   -2.9255    1.6432 H   0  0  0  0  0  0  0  0  0  0  0  0
    5.6411   -1.4362    2.5511 H   0  0  0  0  0  0  0  0  0  0  0  0
    7.5677   -0.2694    1.7057 H   0  0  0  0  0  0  0  0  0  0  0  0
    8.5764    1.0304   -0.0766 H   0  0  0  0  0  0  0  0  0  0  0  0
    5.8024   -0.5581   -2.8071 H   0  0  0  0  0  0  0  0  0  0  0  0
    4.8031   -1.8703   -1.0290 H   0  0  0  0  0  0  0  0  0  0  0  0
   -7.8712   -3.5804   -1.5909 H   0  0  0  0  0  0  0  0  0  0  0  0
   -8.7591   -2.6387   -0.4047 H   0  0  0  0  0  0  0  0  0  0  0  0
   -7.4390   -3.6478    0.0976 H   0  0  0  0  0  0  0  0  0  0  0  0
    9.7886    0.5741   -4.2580 H   0  0  0  0  0  0  0  0  0  0  0  0
    8.7760   -0.7714   -3.7614 H   0  0  0  0  0  0  0  0  0  0  0  0
    9.9086   -0.0768   -2.6442 H   0  0  0  0  0  0  0  0  0  0  0  0
  1  2  1  0
  2  3  2  0
  2  7  1  0
  7  6  2  0
  6  5  1  0
  5  4  2  0
  4  3  1  0
  8  9  2  0
  8 13  1  0
 13 12  2  0
 12 11  1  0
 11 10  2  0
 10  9  1  0
  1  8  1  0
  1 14  1  0
 14 15  1  0
 16 17  1  0
 16 21  1  0
 21 20  1  0
 20 19  1  0
 19 18  1  0
 18 17  1  0
 15 16  1  0
 19 22  1  0
 22 23  1  0
 23 24  1  0
 22 25  1  0
 25 26  2  0
 25 27  1  0
 28 29  2  0
 28 33  1  0
 33 32  2  0
 32 31  1  0
 31 30  2  0
 30 29  1  0
 27 28  1  0
 34 35  2  0
 34 36  2  0
 31 34  1  0
 11 37  1  0
 34 38  1  0
  1 39  1  6
  3 40  1  0
  4 41  1  0
  5 42  1  0
  6 43  1  0
  7 44  1  0
  9 45  1  0
 10 46  1  0
 12 47  1  0
 13 48  1  0
 14 49  1  0
 14 50  1  0
 15 51  1  0
 15 52  1  0
 16 53  1  1
 17 54  1  0
 17 55  1  0
 18 56  1  0
 18 57  1  0
 19 58  1  6
 20 59  1  0
 20 60  1  0
 21 61  1  0
 21 62  1  0
 23 63  1  0
 23 64  1  0
 24 65  1  0
 24 66  1  0
 24 67  1  0
 27 68  1  0
 27 69  1  0
 29 70  1  0
 30 71  1  0
 32 72  1  0
 33 73  1  0
 37 74  1  0
 37 75  1  0
 37 76  1  0
 38 77  1  0
 38 78  1  0
 38 79  1  0
M  CHG  1  16   1
M  END
>  <_TriposChargeType>  (14) 
GASTEIGER

>  <Activity>  (14) 
7.55

$$$$
CCR5_54
     RDKit          3D

 75 78  0  0  0  0  0  0  0  0999 V2000
   -4.0076    1.4033   -1.5012 C   0  0  0  0  0  0  0  0  0  0  0  0
   -4.4006    2.6581   -0.6911 C   0  0  0  0  0  0  0  0  0  0  0  0
   -5.7177    3.1193   -0.8162 C   0  0  0  0  0  0  0  0  0  0  0  0
   -6.1661    4.2292   -0.0949 C   0  0  0  0  0  0  0  0  0  0  0  0
   -5.2920    4.9040    0.7597 C   0  0  0  0  0  0  0  0  0  0  0  0
   -3.9704    4.4678    0.8779 C   0  0  0  0  0  0  0  0  0  0  0  0
   -3.5251    3.3599    0.1502 C   0  0  0  0  0  0  0  0  0  0  0  0
   -5.0164    0.2591   -1.2928 C   0  0  0  0  0  0  0  0  0  0  0  0
   -5.6581    0.0764   -0.0613 C   0  0  0  0  0  0  0  0  0  0  0  0
   -6.5804   -0.9597    0.1112 C   0  0  0  0  0  0  0  0  0  0  0  0
   -6.8655   -1.8269   -0.9466 C   0  0  0  0  0  0  0  0  0  0  0  0
   -6.2233   -1.6561   -2.1757 C   0  0  0  0  0  0  0  0  0  0  0  0
   -5.3018   -0.6187   -2.3454 C   0  0  0  0  0  0  0  0  0  0  0  0
   -2.5701    0.8442   -1.2893 C   0  0  0  0  0  0  0  0  0  0  0  0
   -2.3724    0.1623    0.0948 C   0  0  0  0  0  0  0  0  0  0  0  0
   -0.9408    0.0803    0.4904 N   0  0  2  0  0  4  0  0  0  0  0  0
   -0.0717   -0.7107   -0.4177 C   0  0  0  0  0  0  0  0  0  0  0  0
    1.4209   -0.5200   -0.0457 C   0  0  0  0  0  0  0  0  0  0  0  0
    1.6739   -0.9017    1.4319 C   0  0  2  0  0  0  0  0  0  0  0  0
    0.7213   -0.0793    2.3408 C   0  0  0  0  0  0  0  0  0  0  0  0
   -0.7530   -0.2991    1.9149 C   0  0  0  0  0  0  0  0  0  0  0  0
    3.1164   -0.7641    1.7223 N   0  0  0  0  0  0  0  0  0  0  0  0
    3.7210    0.5417    2.0244 C   0  0  0  0  0  0  0  0  0  0  0  0
    3.9272    0.7274    3.5507 C   0  0  0  0  0  0  0  0  0  0  0  0
    3.8985   -1.8842    1.6313 C   0  0  0  0  0  0  0  0  0  0  0  0
    3.3916   -2.9347    1.2743 O   0  0  0  0  0  0  0  0  0  0  0  0
    5.2267   -1.9037    1.9141 N   0  0  0  0  0  0  0  0  0  0  0  0
    6.5900   -3.1104    0.3110 C   0  0  0  0  0  0  0  0  0  0  0  0
    7.8579   -2.5677    0.0708 C   0  0  0  0  0  0  0  0  0  0  0  0
    8.4063   -2.5741   -1.2170 C   0  0  0  0  0  0  0  0  0  0  0  0
    7.6619   -3.1013   -2.2776 C   0  0  0  0  0  0  0  0  0  0  0  0
    6.3888   -3.6301   -2.0490 C   0  0  0  0  0  0  0  0  0  0  0  0
    5.8555   -3.6363   -0.7575 C   0  0  0  0  0  0  0  0  0  0  0  0
    6.0076   -3.1291    1.7307 C   0  0  0  0  0  0  0  0  0  0  0  0
    9.8093   -2.0123   -1.4784 C   0  0  0  0  0  0  0  0  0  0  0  0
   -4.0248    1.7693   -2.5065 H   0  0  0  0  0  0  0  0  0  0  0  0
   -6.3678    2.6311   -1.4518 H   0  0  0  0  0  0  0  0  0  0  0  0
   -7.1421    4.5497   -0.1938 H   0  0  0  0  0  0  0  0  0  0  0  0
   -5.6202    5.7195    1.3003 H   0  0  0  0  0  0  0  0  0  0  0  0
   -3.3195    4.9655    1.5053 H   0  0  0  0  0  0  0  0  0  0  0  0
   -2.5425    3.0556    0.2330 H   0  0  0  0  0  0  0  0  0  0  0  0
   -5.4484    0.7115    0.7246 H   0  0  0  0  0  0  0  0  0  0  0  0
   -7.0513   -1.0843    1.0210 H   0  0  0  0  0  0  0  0  0  0  0  0
   -7.5479   -2.5908   -0.8205 H   0  0  0  0  0  0  0  0  0  0  0  0
   -6.4294   -2.2961   -2.9586 H   0  0  0  0  0  0  0  0  0  0  0  0
   -4.8279   -0.4989   -3.2543 H   0  0  0  0  0  0  0  0  0  0  0  0
   -1.8574    1.6339   -1.4051 H   0  0  0  0  0  0  0  0  0  0  0  0
   -2.4205    0.0874   -2.0308 H   0  0  0  0  0  0  0  0  0  0  0  0
   -2.7992   -0.8187    0.0783 H   0  0  0  0  0  0  0  0  0  0  0  0
   -2.8691    0.7696    0.8224 H   0  0  0  0  0  0  0  0  0  0  0  0
   -0.6123    1.0401    0.3841 H   0  0  0  0  0  0  0  0  0  0  0  0
   -0.2375   -0.4166   -1.4330 H   0  0  0  0  0  0  0  0  0  0  0  0
   -0.3196   -1.7459   -0.3093 H   0  0  0  0  0  0  0  0  0  0  0  0
    2.0371   -1.1139   -0.6880 H   0  0  0  0  0  0  0  0  0  0  0  0
    1.6704    0.5126   -0.1740 H   0  0  0  0  0  0  0  0  0  0  0  0
    1.4397   -1.9256    1.6358 H   0  0  0  0  0  0  0  0  0  0  0  0
    0.8545   -0.3617    3.3642 H   0  0  0  0  0  0  0  0  0  0  0  0
    0.9575    0.9588    2.2340 H   0  0  0  0  0  0  0  0  0  0  0  0
   -1.0301   -1.3220    2.0628 H   0  0  0  0  0  0  0  0  0  0  0  0
   -1.3806    0.3210    2.5203 H   0  0  0  0  0  0  0  0  0  0  0  0
    3.1035    1.3271    1.6414 H   0  0  0  0  0  0  0  0  0  0  0  0
    4.6806    0.5802    1.5527 H   0  0  0  0  0  0  0  0  0  0  0  0
    2.9794    0.6925    4.0460 H   0  0  0  0  0  0  0  0  0  0  0  0
    4.4142    1.6595    3.7480 H   0  0  0  0  0  0  0  0  0  0  0  0
    4.5467   -0.0627    3.9206 H   0  0  0  0  0  0  0  0  0  0  0  0
    5.6679   -1.0881    2.2448 H   0  0  0  0  0  0  0  0  0  0  0  0
    8.3941   -2.1584    0.8518 H   0  0  0  0  0  0  0  0  0  0  0  0
    8.0543   -3.0997   -3.2321 H   0  0  0  0  0  0  0  0  0  0  0  0
    5.8421   -4.0163   -2.8345 H   0  0  0  0  0  0  0  0  0  0  0  0
    4.9163   -4.0303   -0.5911 H   0  0  0  0  0  0  0  0  0  0  0  0
    5.3908   -3.9919    1.8720 H   0  0  0  0  0  0  0  0  0  0  0  0
    6.7964   -3.1750    2.4522 H   0  0  0  0  0  0  0  0  0  0  0  0
   10.0444   -2.1079   -2.5179 H   0  0  0  0  0  0  0  0  0  0  0  0
   10.5328   -2.5320   -0.8856 H   0  0  0  0  0  0  0  0  0  0  0  0
    9.8301   -0.9775   -1.2069 H   0  0  0  0  0  0  0  0  0  0  0  0
  1  2  1  0
  2  3  2  0
  2  7  1  0
  7  6  2  0
  6  5  1  0
  5  4  2  0
  4  3  1  0
  8  9  2  0
  8 13  1  0
 13 12  2  0
 12 11  1  0
 11 10  2  0
 10  9  1  0
  1  8  1  0
  1 14  1  0
 14 15  1  0
 16 17  1  0
 16 21  1  0
 21 20  1  0
 20 19  1  0
 19 18  1  0
 18 17  1  0
 15 16  1  0
 19 22  1  0
 22 23  1  0
 23 24  1  0
 22 25  1  0
 25 26  2  0
 25 27  1  0
 28 29  2  0
 28 33  1  0
 33 32  2  0
 32 31  1  0
 31 30  2  0
 30 29  1  0
 27 34  1  0
 34 28  1  0
 30 35  1  0
  1 36  1  0
  3 37  1  0
  4 38  1  0
  5 39  1  0
  6 40  1  0
  7 41  1  0
  9 42  1  0
 10 43  1  0
 11 44  1  0
 12 45  1  0
 13 46  1  0
 14 47  1  0
 14 48  1  0
 15 49  1  0
 15 50  1  0
 16 51  1  1
 17 52  1  0
 17 53  1  0
 18 54  1  0
 18 55  1  0
 19 56  1  6
 20 57  1  0
 20 58  1  0
 21 59  1  0
 21 60  1  0
 23 61  1  0
 23 62  1  0
 24 63  1  0
 24 64  1  0
 24 65  1  0
 27 66  1  0
 29 67  1  0
 31 68  1  0
 32 69  1  0
 33 70  1  0
 34 71  1  0
 34 72  1  0
 35 73  1  0
 35 74  1  0
 35 75  1  0
M  CHG  1  16   1
M  END
>  <_TriposChargeType>  (15) 
GASTEIGER

>  <Activity>  (15) 
7.46

$$$$
CCR5_48
     RDKit          3D

 72 75  0  0  0  0  0  0  0  0999 V2000
   -4.0394    1.4592   -1.4980 C   0  0  0  0  0  0  0  0  0  0  0  0
   -4.4323    2.6777   -0.6345 C   0  0  0  0  0  0  0  0  0  0  0  0
   -5.7615    3.1153   -0.7047 C   0  0  0  0  0  0  0  0  0  0  0  0
   -6.2087    4.1932    0.0641 C   0  0  0  0  0  0  0  0  0  0  0  0
   -5.3216    4.8596    0.9120 C   0  0  0  0  0  0  0  0  0  0  0  0
   -3.9890    4.4463    0.9770 C   0  0  0  0  0  0  0  0  0  0  0  0
   -3.5454    3.3696    0.2030 C   0  0  0  0  0  0  0  0  0  0  0  0
   -5.0217    0.2896   -1.3070 C   0  0  0  0  0  0  0  0  0  0  0  0
   -5.6235    0.0472   -0.0658 C   0  0  0  0  0  0  0  0  0  0  0  0
   -6.5179   -1.0152    0.0932 C   0  0  0  0  0  0  0  0  0  0  0  0
   -6.8152   -1.8482   -0.9884 C   0  0  0  0  0  0  0  0  0  0  0  0
   -6.2148   -1.6159   -2.2285 C   0  0  0  0  0  0  0  0  0  0  0  0
   -5.3214   -0.5522   -2.3848 C   0  0  0  0  0  0  0  0  0  0  0  0
   -2.5891    0.9159   -1.3417 C   0  0  0  0  0  0  0  0  0  0  0  0
   -2.3462    0.1849    0.0100 C   0  0  0  0  0  0  0  0  0  0  0  0
   -0.9035    0.0808    0.3575 N   0  0  2  0  0  4  0  0  0  0  0  0
   -0.0597   -0.6467   -0.6247 C   0  0  0  0  0  0  0  0  0  0  0  0
    1.4391   -0.4521   -0.2815 C   0  0  0  0  0  0  0  0  0  0  0  0
    1.7317   -0.9448    1.1587 C   0  0  2  0  0  0  0  0  0  0  0  0
    0.8085   -0.2049    2.1575 C   0  0  0  0  0  0  0  0  0  0  0  0
   -0.6764   -0.3867    1.7508 C   0  0  0  0  0  0  0  0  0  0  0  0
    3.1611   -0.8141    1.5015 N   0  0  0  0  0  0  0  0  0  0  0  0
    3.8283    0.5004    1.5113 C   0  0  0  0  0  0  0  0  0  0  0  0
    4.2675    0.8583    2.9559 C   0  0  0  0  0  0  0  0  0  0  0  0
    3.8028   -1.9182    1.9934 C   0  0  0  0  0  0  0  0  0  0  0  0
    3.1268   -2.7902    2.5158 O   0  0  0  0  0  0  0  0  0  0  0  0
    5.0901   -2.1554    1.9689 N   0  0  0  0  0  0  0  0  0  0  0  0
    5.9782   -1.4511    1.2325 C   0  0  0  0  0  0  0  0  0  0  0  0
    7.0761   -0.8324    1.8371 C   0  0  0  0  0  0  0  0  0  0  0  0
    7.9568   -0.0634    1.0705 C   0  0  0  0  0  0  0  0  0  0  0  0
    7.7611    0.0702   -0.3092 C   0  0  0  0  0  0  0  0  0  0  0  0
    6.6972   -0.6020   -0.9203 C   0  0  0  0  0  0  0  0  0  0  0  0
    5.8123   -1.3653   -0.1538 C   0  0  0  0  0  0  0  0  0  0  0  0
    8.6916    0.9398   -1.1632 C   0  0  0  0  0  0  0  0  0  0  0  0
   -4.0888    1.8631   -2.4876 H   0  0  0  0  0  0  0  0  0  0  0  0
   -6.4215    2.6334   -1.3349 H   0  0  0  0  0  0  0  0  0  0  0  0
   -7.1934    4.4964    0.0053 H   0  0  0  0  0  0  0  0  0  0  0  0
   -5.6484    5.6521    1.4867 H   0  0  0  0  0  0  0  0  0  0  0  0
   -3.3286    4.9379    1.5993 H   0  0  0  0  0  0  0  0  0  0  0  0
   -2.5556    3.0812    0.2485 H   0  0  0  0  0  0  0  0  0  0  0  0
   -5.4050    0.6574    0.7373 H   0  0  0  0  0  0  0  0  0  0  0  0
   -6.9592   -1.1845    1.0106 H   0  0  0  0  0  0  0  0  0  0  0  0
   -7.4759   -2.6323   -0.8718 H   0  0  0  0  0  0  0  0  0  0  0  0
   -6.4310   -2.2298   -3.0293 H   0  0  0  0  0  0  0  0  0  0  0  0
   -4.8791   -0.3860   -3.3023 H   0  0  0  0  0  0  0  0  0  0  0  0
   -1.8917    1.7209   -1.4443 H   0  0  0  0  0  0  0  0  0  0  0  0
   -2.4468    0.1900   -2.1148 H   0  0  0  0  0  0  0  0  0  0  0  0
   -2.7796   -0.7927   -0.0261 H   0  0  0  0  0  0  0  0  0  0  0  0
   -2.8127    0.7714    0.7737 H   0  0  0  0  0  0  0  0  0  0  0  0
   -0.5764    1.0454    0.3023 H   0  0  0  0  0  0  0  0  0  0  0  0
   -0.2601   -0.2951   -1.6152 H   0  0  0  0  0  0  0  0  0  0  0  0
   -0.2936   -1.6897   -0.5772 H   0  0  0  0  0  0  0  0  0  0  0  0
    2.0488   -0.9828   -0.9826 H   0  0  0  0  0  0  0  0  0  0  0  0
    1.6706    0.5909   -0.3397 H   0  0  0  0  0  0  0  0  0  0  0  0
    1.5146   -1.9907    1.2199 H   0  0  0  0  0  0  0  0  0  0  0  0
    0.9667   -0.5752    3.1488 H   0  0  0  0  0  0  0  0  0  0  0  0
    1.0454    0.8383    2.1364 H   0  0  0  0  0  0  0  0  0  0  0  0
   -0.9583   -1.4148    1.8428 H   0  0  0  0  0  0  0  0  0  0  0  0
   -1.2807    0.2037    2.4074 H   0  0  0  0  0  0  0  0  0  0  0  0
    3.1695    1.2518    1.1288 H   0  0  0  0  0  0  0  0  0  0  0  0
    4.6951    0.4550    0.8856 H   0  0  0  0  0  0  0  0  0  0  0  0
    3.4066    0.9061    3.5895 H   0  0  0  0  0  0  0  0  0  0  0  0
    4.7860    1.7942    2.9643 H   0  0  0  0  0  0  0  0  0  0  0  0
    4.9304    0.1013    3.3197 H   0  0  0  0  0  0  0  0  0  0  0  0
    5.4332   -2.8939    2.5222 H   0  0  0  0  0  0  0  0  0  0  0  0
    7.2368   -0.9434    2.8505 H   0  0  0  0  0  0  0  0  0  0  0  0
    8.7550    0.4080    1.5239 H   0  0  0  0  0  0  0  0  0  0  0  0
    6.5652   -0.5339   -1.9416 H   0  0  0  0  0  0  0  0  0  0  0  0
    5.0350   -1.8666   -0.6114 H   0  0  0  0  0  0  0  0  0  0  0  0
    8.3727    0.9083   -2.1841 H   0  0  0  0  0  0  0  0  0  0  0  0
    9.7010    0.5949   -1.0797 H   0  0  0  0  0  0  0  0  0  0  0  0
    8.6493    1.9498   -0.8124 H   0  0  0  0  0  0  0  0  0  0  0  0
  1  2  1  0
  2  3  2  0
  2  7  1  0
  7  6  2  0
  6  5  1  0
  5  4  2  0
  4  3  1  0
  8  9  2  0
  8 13  1  0
 13 12  2  0
 12 11  1  0
 11 10  2  0
 10  9  1  0
  1  8  1  0
  1 14  1  0
 14 15  1  0
 16 17  1  0
 16 21  1  0
 21 20  1  0
 20 19  1  0
 19 18  1  0
 18 17  1  0
 15 16  1  0
 19 22  1  0
 22 23  1  0
 23 24  1  0
 22 25  1  0
 25 26  2  0
 25 27  1  0
 28 29  2  0
 28 33  1  0
 33 32  2  0
 32 31  1  0
 31 30  2  0
 30 29  1  0
 27 28  1  0
 31 34  1  0
  1 35  1  0
  3 36  1  0
  4 37  1  0
  5 38  1  0
  6 39  1  0
  7 40  1  0
  9 41  1  0
 10 42  1  0
 11 43  1  0
 12 44  1  0
 13 45  1  0
 14 46  1  0
 14 47  1  0
 15 48  1  0
 15 49  1  0
 16 50  1  1
 17 51  1  0
 17 52  1  0
 18 53  1  0
 18 54  1  0
 19 55  1  6
 20 56  1  0
 20 57  1  0
 21 58  1  0
 21 59  1  0
 23 60  1  0
 23 61  1  0
 24 62  1  0
 24 63  1  0
 24 64  1  0
 27 65  1  0
 29 66  1  0
 30 67  1  0
 32 68  1  0
 33 69  1  0
 34 70  1  0
 34 71  1  0
 34 72  1  0
M  CHG  1  16   1
M  END
>  <_TriposChargeType>  (16) 
GASTEIGER

>  <Activity>  (16) 
6.49

$$$$
CCR5_11
     RDKit          3D

 67 70  0  0  0  0  0  0  0  0999 V2000
   -3.9941    1.4303   -1.5038 C   0  0  0  0  0  0  0  0  0  0  0  0
   -4.4329    2.6759   -0.7024 C   0  0  0  0  0  0  0  0  0  0  0  0
   -5.7794    3.0560   -0.7781 C   0  0  0  0  0  0  0  0  0  0  0  0
   -6.2670    4.1393   -0.0419 C   0  0  0  0  0  0  0  0  0  0  0  0
   -5.4021    4.8752    0.7706 C   0  0  0  0  0  0  0  0  0  0  0  0
   -4.0501    4.5295    0.8277 C   0  0  0  0  0  0  0  0  0  0  0  0
   -3.5669    3.4471    0.0862 C   0  0  0  0  0  0  0  0  0  0  0  0
   -4.9744    0.2588   -1.3094 C   0  0  0  0  0  0  0  0  0  0  0  0
   -5.5958    0.0362   -0.0742 C   0  0  0  0  0  0  0  0  0  0  0  0
   -6.4892   -1.0264    0.0892 C   0  0  0  0  0  0  0  0  0  0  0  0
   -6.7666   -1.8790   -0.9823 C   0  0  0  0  0  0  0  0  0  0  0  0
   -6.1465   -1.6667   -2.2162 C   0  0  0  0  0  0  0  0  0  0  0  0
   -5.2531   -0.6036   -2.3764 C   0  0  0  0  0  0  0  0  0  0  0  0
   -2.5497    0.9008   -1.2621 C   0  0  0  0  0  0  0  0  0  0  0  0
   -2.3486    0.2853    0.1518 C   0  0  0  0  0  0  0  0  0  0  0  0
   -0.9077    0.1824    0.5082 N   0  0  2  0  0  4  0  0  0  0  0  0
   -0.1474   -0.8315   -0.2654 C   0  0  0  0  0  0  0  0  0  0  0  0
    1.3725   -0.7353    0.0235 C   0  0  0  0  0  0  0  0  0  0  0  0
    1.6580   -0.8787    1.5395 C   0  0  2  0  0  0  0  0  0  0  0  0
    0.8445    0.2173    2.2764 C   0  0  0  0  0  0  0  0  0  0  0  0
   -0.6669    0.0698    1.9693 C   0  0  0  0  0  0  0  0  0  0  0  0
    3.1176   -0.8613    1.7435 N   0  0  0  0  0  0  0  0  0  0  0  0
    3.8492    0.3579    2.1149 C   0  0  0  0  0  0  0  0  0  0  0  0
    8.6332    1.3762    0.4522 F   0  0  0  0  0  0  0  0  0  0  0  0
    3.7986   -2.0042    1.4370 C   0  0  0  0  0  0  0  0  0  0  0  0
    3.2084   -3.0248    1.1205 O   0  0  0  0  0  0  0  0  0  0  0  0
    5.3068   -2.1033    1.4470 C   0  0  0  0  0  0  0  0  0  0  0  0
    5.9390   -1.0677    0.5064 C   0  0  0  0  0  0  0  0  0  0  0  0
    7.0440   -0.3091    0.9102 C   0  0  0  0  0  0  0  0  0  0  0  0
    7.5896    0.6524    0.0559 C   0  0  0  0  0  0  0  0  0  0  0  0
    7.0414    0.8551   -1.2126 C   0  0  0  0  0  0  0  0  0  0  0  0
    5.9483    0.0900   -1.6283 C   0  0  0  0  0  0  0  0  0  0  0  0
    5.4049   -0.8726   -0.7726 C   0  0  0  0  0  0  0  0  0  0  0  0
   -4.0027    1.7998   -2.5079 H   0  0  0  0  0  0  0  0  0  0  0  0
   -6.4222    2.5269   -1.3880 H   0  0  0  0  0  0  0  0  0  0  0  0
   -7.2652    4.3951   -0.0987 H   0  0  0  0  0  0  0  0  0  0  0  0
   -5.7594    5.6689    1.3250 H   0  0  0  0  0  0  0  0  0  0  0  0
   -3.4049    5.0754    1.4199 H   0  0  0  0  0  0  0  0  0  0  0  0
   -2.5623    3.2132    0.1196 H   0  0  0  0  0  0  0  0  0  0  0  0
   -5.3926    0.6614    0.7213 H   0  0  0  0  0  0  0  0  0  0  0  0
   -6.9444   -1.1813    1.0023 H   0  0  0  0  0  0  0  0  0  0  0  0
   -7.4272   -2.6628   -0.8628 H   0  0  0  0  0  0  0  0  0  0  0  0
   -6.3481   -2.2950   -3.0097 H   0  0  0  0  0  0  0  0  0  0  0  0
   -4.7951   -0.4532   -3.2889 H   0  0  0  0  0  0  0  0  0  0  0  0
   -1.8472    1.6940   -1.4113 H   0  0  0  0  0  0  0  0  0  0  0  0
   -2.3870    0.1134   -1.9680 H   0  0  0  0  0  0  0  0  0  0  0  0
   -2.8038   -0.6821    0.1953 H   0  0  0  0  0  0  0  0  0  0  0  0
   -2.8151    0.9365    0.8612 H   0  0  0  0  0  0  0  0  0  0  0  0
   -0.5241    1.0815    0.2170 H   0  0  0  0  0  0  0  0  0  0  0  0
   -0.3288   -0.7034   -1.3121 H   0  0  0  0  0  0  0  0  0  0  0  0
   -0.4826   -1.8012    0.0383 H   0  0  0  0  0  0  0  0  0  0  0  0
    1.8972   -1.4924   -0.5210 H   0  0  0  0  0  0  0  0  0  0  0  0
    1.7143    0.2280   -0.2930 H   0  0  0  0  0  0  0  0  0  0  0  0
    1.3350   -1.8089    1.9582 H   0  0  0  0  0  0  0  0  0  0  0  0
    1.0130    0.1531    3.3311 H   0  0  0  0  0  0  0  0  0  0  0  0
    1.1709    1.1753    1.9291 H   0  0  0  0  0  0  0  0  0  0  0  0
   -1.0257   -0.8715    2.3301 H   0  0  0  0  0  0  0  0  0  0  0  0
   -1.1968    0.8553    2.4664 H   0  0  0  0  0  0  0  0  0  0  0  0
    3.1528    1.1442    2.3188 H   0  0  0  0  0  0  0  0  0  0  0  0
    4.5130    0.6462    1.3268 H   0  0  0  0  0  0  0  0  0  0  0  0
    4.4299    0.1659    2.9929 H   0  0  0  0  0  0  0  0  0  0  0  0
    5.6097   -3.0889    1.1612 H   0  0  0  0  0  0  0  0  0  0  0  0
    5.6465   -1.9003    2.4411 H   0  0  0  0  0  0  0  0  0  0  0  0
    7.4576   -0.4608    1.8434 H   0  0  0  0  0  0  0  0  0  0  0  0
    7.4426    1.5682   -1.8415 H   0  0  0  0  0  0  0  0  0  0  0  0
    5.5427    0.2355   -2.5660 H   0  0  0  0  0  0  0  0  0  0  0  0
    4.6043   -1.4434   -1.0861 H   0  0  0  0  0  0  0  0  0  0  0  0
  1  2  1  0
  2  3  2  0
  2  7  1  0
  7  6  2  0
  6  5  1  0
  5  4  2  0
  4  3  1  0
  8  9  2  0
  8 13  1  0
 13 12  2  0
 12 11  1  0
 11 10  2  0
 10  9  1  0
  1  8  1  0
  1 14  1  0
 14 15  1  0
 16 17  1  0
 16 21  1  0
 21 20  1  0
 20 19  1  0
 19 18  1  0
 18 17  1  0
 15 16  1  0
 19 22  1  0
 22 23  1  0
 30 24  1  0
 22 25  1  0
 25 26  2  0
 25 27  1  0
 28 29  2  0
 33 28  1  0
 32 33  2  0
 31 32  1  0
 31 30  2  0
 30 29  1  0
 27 28  1  0
  1 34  1  0
  3 35  1  0
  4 36  1  0
  5 37  1  0
  6 38  1  0
  7 39  1  0
  9 40  1  0
 10 41  1  0
 11 42  1  0
 12 43  1  0
 13 44  1  0
 14 45  1  0
 14 46  1  0
 15 47  1  0
 15 48  1  0
 16 49  1  6
 17 50  1  0
 17 51  1  0
 18 52  1  0
 18 53  1  0
 19 54  1  1
 20 55  1  0
 20 56  1  0
 21 57  1  0
 21 58  1  0
 23 59  1  0
 23 60  1  0
 23 61  1  0
 27 62  1  0
 27 63  1  0
 29 64  1  0
 31 65  1  0
 32 66  1  0
 33 67  1  0
M  CHG  1  16   1
M  END
>  <_TriposChargeType>  (17) 
GASTEIGER

>  <Activity>  (17) 
5.85

$$$$
CCR5_30
     RDKit          3D

 68 71  0  0  0  0  0  0  0  0999 V2000
   -3.9938    1.4316   -1.5028 C   0  0  0  0  0  0  0  0  0  0  0  0
   -4.4330    2.6757   -0.6993 C   0  0  0  0  0  0  0  0  0  0  0  0
   -5.7790    3.0574   -0.7774 C   0  0  0  0  0  0  0  0  0  0  0  0
   -6.2672    4.1395   -0.0398 C   0  0  0  0  0  0  0  0  0  0  0  0
   -5.4036    4.8725    0.7767 C   0  0  0  0  0  0  0  0  0  0  0  0
   -4.0521    4.5251    0.8365 C   0  0  0  0  0  0  0  0  0  0  0  0
   -3.5681    3.4440    0.0934 C   0  0  0  0  0  0  0  0  0  0  0  0
   -4.9741    0.2598   -1.3107 C   0  0  0  0  0  0  0  0  0  0  0  0
   -5.5973    0.0360   -0.0765 C   0  0  0  0  0  0  0  0  0  0  0  0
   -6.4908   -1.0268    0.0846 C   0  0  0  0  0  0  0  0  0  0  0  0
   -6.7666   -1.8785   -0.9881 C   0  0  0  0  0  0  0  0  0  0  0  0
   -6.1446   -1.6651   -2.2209 C   0  0  0  0  0  0  0  0  0  0  0  0
   -5.2512   -0.6017   -2.3790 C   0  0  0  0  0  0  0  0  0  0  0  0
   -2.5494    0.9020   -1.2616 C   0  0  0  0  0  0  0  0  0  0  0  0
   -2.3491    0.2824    0.1506 C   0  0  0  0  0  0  0  0  0  0  0  0
   -0.9079    0.1800    0.5057 N   0  0  2  0  0  4  0  0  0  0  0  0
   -0.1506   -0.8407   -0.2619 C   0  0  0  0  0  0  0  0  0  0  0  0
    1.3703   -0.7437    0.0220 C   0  0  0  0  0  0  0  0  0  0  0  0
    1.6591   -0.8742    1.5385 C   0  0  2  0  0  0  0  0  0  0  0  0
    0.8491    0.2294    2.2679 C   0  0  0  0  0  0  0  0  0  0  0  0
   -0.6633    0.0800    1.9670 C   0  0  0  0  0  0  0  0  0  0  0  0
    3.1192   -0.8587    1.7389 N   0  0  0  0  0  0  0  0  0  0  0  0
    3.8563    0.3632    2.0900 C   0  0  0  0  0  0  0  0  0  0  0  0
    7.6017    1.7358   -2.1352 O   0  0  0  0  0  0  0  0  0  0  0  0
    3.7962   -2.0079    1.4475 C   0  0  0  0  0  0  0  0  0  0  0  0
    3.2020   -3.0306    1.1448 O   0  0  0  0  0  0  0  0  0  0  0  0
    5.3041   -2.1116    1.4595 C   0  0  0  0  0  0  0  0  0  0  0  0
    5.9431   -1.0918    0.5062 C   0  0  0  0  0  0  0  0  0  0  0  0
    7.0512   -0.3331    0.9002 C   0  0  0  0  0  0  0  0  0  0  0  0
    7.6084    0.6105    0.0316 C   0  0  0  0  0  0  0  0  0  0  0  0
    7.0668    0.7987   -1.2461 C   0  0  0  0  0  0  0  0  0  0  0  0
    5.9676    0.0333   -1.6426 C   0  0  0  0  0  0  0  0  0  0  0  0
    5.4121   -0.9118   -0.7757 C   0  0  0  0  0  0  0  0  0  0  0  0
   -4.0021    1.8027   -2.5064 H   0  0  0  0  0  0  0  0  0  0  0  0
   -6.4208    2.5304   -1.3901 H   0  0  0  0  0  0  0  0  0  0  0  0
   -7.2650    4.3965   -0.0986 H   0  0  0  0  0  0  0  0  0  0  0  0
   -5.7614    5.6653    1.3321 H   0  0  0  0  0  0  0  0  0  0  0  0
   -3.4078    5.0688    1.4318 H   0  0  0  0  0  0  0  0  0  0  0  0
   -2.5638    3.2090    0.1287 H   0  0  0  0  0  0  0  0  0  0  0  0
   -5.3953    0.6605    0.7199 H   0  0  0  0  0  0  0  0  0  0  0  0
   -6.9473   -1.1826    0.9969 H   0  0  0  0  0  0  0  0  0  0  0  0
   -7.4274   -2.6624   -0.8703 H   0  0  0  0  0  0  0  0  0  0  0  0
   -6.3449   -2.2929   -3.0151 H   0  0  0  0  0  0  0  0  0  0  0  0
   -4.7920   -0.4504   -3.2908 H   0  0  0  0  0  0  0  0  0  0  0  0
   -1.8471    1.6959   -1.4079 H   0  0  0  0  0  0  0  0  0  0  0  0
   -2.3858    0.1167   -1.9697 H   0  0  0  0  0  0  0  0  0  0  0  0
   -2.8034   -0.6855    0.1910 H   0  0  0  0  0  0  0  0  0  0  0  0
   -2.8169    0.9302    0.8622 H   0  0  0  0  0  0  0  0  0  0  0  0
   -0.5238    1.0765    0.2072 H   0  0  0  0  0  0  0  0  0  0  0  0
   -0.3348   -0.7208   -1.3091 H   0  0  0  0  0  0  0  0  0  0  0  0
   -0.4858   -1.8076    0.0505 H   0  0  0  0  0  0  0  0  0  0  0  0
    1.8927   -1.5062   -0.5171 H   0  0  0  0  0  0  0  0  0  0  0  0
    1.7126    0.2162   -0.3040 H   0  0  0  0  0  0  0  0  0  0  0  0
    1.3352   -1.7999    1.9664 H   0  0  0  0  0  0  0  0  0  0  0  0
    1.0210    0.1749    3.3226 H   0  0  0  0  0  0  0  0  0  0  0  0
    1.1751    1.1839    1.9109 H   0  0  0  0  0  0  0  0  0  0  0  0
   -1.0215   -0.8579    2.3370 H   0  0  0  0  0  0  0  0  0  0  0  0
   -1.1915    0.8698    2.4590 H   0  0  0  0  0  0  0  0  0  0  0  0
    3.1633    1.1550    2.2843 H   0  0  0  0  0  0  0  0  0  0  0  0
    4.5187    0.6374    1.2957 H   0  0  0  0  0  0  0  0  0  0  0  0
    4.4390    0.1821    2.9689 H   0  0  0  0  0  0  0  0  0  0  0  0
    7.2228    1.8446   -2.9852 H   0  0  0  0  0  0  0  0  0  0  0  0
    5.6036   -3.1022    1.1877 H   0  0  0  0  0  0  0  0  0  0  0  0
    5.6427   -1.8949    2.4511 H   0  0  0  0  0  0  0  0  0  0  0  0
    7.4597   -0.4709    1.8378 H   0  0  0  0  0  0  0  0  0  0  0  0
    8.4214    1.1701    0.3331 H   0  0  0  0  0  0  0  0  0  0  0  0
    5.5628    0.1667   -2.5825 H   0  0  0  0  0  0  0  0  0  0  0  0
    4.6067   -1.4794   -1.0825 H   0  0  0  0  0  0  0  0  0  0  0  0
  1  2  1  0
  2  3  2  0
  2  7  1  0
  7  6  2  0
  6  5  1  0
  5  4  2  0
  4  3  1  0
  8  9  2  0
  8 13  1  0
 13 12  2  0
 12 11  1  0
 11 10  2  0
 10  9  1  0
  1  8  1  0
  1 14  1  0
 14 15  1  0
 16 17  1  0
 16 21  1  0
 21 20  1  0
 20 19  1  0
 19 18  1  0
 18 17  1  0
 15 16  1  0
 19 22  1  0
 22 23  1  0
 22 25  1  0
 25 26  2  0
 25 27  1  0
 28 29  2  0
 28 33  1  0
 33 32  2  0
 32 31  1  0
 31 30  2  0
 30 29  1  0
 27 28  1  0
 31 24  1  0
  1 34  1  0
  3 35  1  0
  4 36  1  0
  5 37  1  0
  6 38  1  0
  7 39  1  0
  9 40  1  0
 10 41  1  0
 11 42  1  0
 12 43  1  0
 13 44  1  0
 14 45  1  0
 14 46  1  0
 15 47  1  0
 15 48  1  0
 16 49  1  6
 17 50  1  0
 17 51  1  0
 18 52  1  0
 18 53  1  0
 19 54  1  1
 20 55  1  0
 20 56  1  0
 21 57  1  0
 21 58  1  0
 23 59  1  0
 23 60  1  0
 23 61  1  0
 24 62  1  0
 27 63  1  0
 27 64  1  0
 29 65  1  0
 30 66  1  0
 32 67  1  0
 33 68  1  0
M  CHG  1  16   1
M  END
>  <_TriposChargeType>  (18) 
GASTEIGER

>  <Activity>  (18) 
6.33

$$$$
CCR5_01
     RDKit          3D

 64 67  0  0  0  0  0  0  0  0999 V2000
   -4.0476    1.5225   -1.5011 C   0  0  0  0  0  0  0  0  0  0  0  0
   -4.5022    2.7220   -0.6411 C   0  0  0  0  0  0  0  0  0  0  0  0
   -5.8544    3.0840   -0.7050 C   0  0  0  0  0  0  0  0  0  0  0  0
   -6.3579    4.1363    0.0645 C   0  0  0  0  0  0  0  0  0  0  0  0
   -5.5050    4.8544    0.9053 C   0  0  0  0  0  0  0  0  0  0  0  0
   -4.1505    4.5185    0.9621 C   0  0  0  0  0  0  0  0  0  0  0  0
   -3.6510    3.4664    0.1882 C   0  0  0  0  0  0  0  0  0  0  0  0
   -4.9642    0.3040   -1.2872 C   0  0  0  0  0  0  0  0  0  0  0  0
   -5.5324    0.0403   -0.0344 C   0  0  0  0  0  0  0  0  0  0  0  0
   -6.3620   -1.0695    0.1492 C   0  0  0  0  0  0  0  0  0  0  0  0
   -6.6290   -1.9285   -0.9199 C   0  0  0  0  0  0  0  0  0  0  0  0
   -6.0646   -1.6731   -2.1723 C   0  0  0  0  0  0  0  0  0  0  0  0
   -5.2357   -0.5620   -2.3531 C   0  0  0  0  0  0  0  0  0  0  0  0
   -2.5676    1.0599   -1.3550 C   0  0  0  0  0  0  0  0  0  0  0  0
   -2.2865    0.3315   -0.0098 C   0  0  0  0  0  0  0  0  0  0  0  0
   -0.8400    0.2258    0.3250 N   0  0  2  0  0  4  0  0  0  0  0  0
    0.0088   -0.4256   -0.7055 C   0  0  0  0  0  0  0  0  0  0  0  0
    1.5077   -0.3351   -0.3174 C   0  0  0  0  0  0  0  0  0  0  0  0
    1.7431   -0.9912    1.0669 C   0  0  2  0  0  0  0  0  0  0  0  0
    0.8536   -0.2766    2.1099 C   0  0  0  0  0  0  0  0  0  0  0  0
   -0.6331   -0.3485    1.6811 C   0  0  0  0  0  0  0  0  0  0  0  0
    3.1439   -0.9714    1.5152 N   0  0  0  0  0  0  0  0  0  0  0  0
    4.0356    0.1564    1.2232 C   0  0  0  0  0  0  0  0  0  0  0  0
    8.9558   -2.5404    3.9286 F   0  0  0  0  0  0  0  0  0  0  0  0
    3.5820   -2.0128    2.2781 C   0  0  0  0  0  0  0  0  0  0  0  0
    2.8198   -2.8774    2.6791 O   0  0  0  0  0  0  0  0  0  0  0  0
    5.0286   -2.1810    2.6939 C   0  0  0  0  0  0  0  0  0  0  0  0
    5.3244   -2.4466    4.0352 C   0  0  0  0  0  0  0  0  0  0  0  0
    6.6524   -2.5742    4.4533 C   0  0  0  0  0  0  0  0  0  0  0  0
    7.6908   -2.4397    3.5287 C   0  0  0  0  0  0  0  0  0  0  0  0
    7.3996   -2.2009    2.1835 C   0  0  0  0  0  0  0  0  0  0  0  0
    6.0704   -2.0930    1.7634 C   0  0  0  0  0  0  0  0  0  0  0  0
   -4.1238    1.9144   -2.4938 H   0  0  0  0  0  0  0  0  0  0  0  0
   -6.4894    2.5646   -1.3311 H   0  0  0  0  0  0  0  0  0  0  0  0
   -7.3587    4.3824    0.0115 H   0  0  0  0  0  0  0  0  0  0  0  0
   -5.8730    5.6280    1.4808 H   0  0  0  0  0  0  0  0  0  0  0  0
   -3.5152    5.0494    1.5782 H   0  0  0  0  0  0  0  0  0  0  0  0
   -2.6459    3.2355    0.2278 H   0  0  0  0  0  0  0  0  0  0  0  0
   -5.3370    0.6703    0.7593 H   0  0  0  0  0  0  0  0  0  0  0  0
   -6.7778   -1.2546    1.0754 H   0  0  0  0  0  0  0  0  0  0  0  0
   -7.2408   -2.7486   -0.7850 H   0  0  0  0  0  0  0  0  0  0  0  0
   -6.2598   -2.3051   -2.9644 H   0  0  0  0  0  0  0  0  0  0  0  0
   -4.8205   -0.3787   -3.2799 H   0  0  0  0  0  0  0  0  0  0  0  0
   -1.9163    1.9035   -1.4498 H   0  0  0  0  0  0  0  0  0  0  0  0
   -2.3833    0.3529   -2.1368 H   0  0  0  0  0  0  0  0  0  0  0  0
   -2.7195   -0.6466   -0.0359 H   0  0  0  0  0  0  0  0  0  0  0  0
   -2.7329    0.9286    0.7577 H   0  0  0  0  0  0  0  0  0  0  0  0
   -0.5059    1.1895    0.3336 H   0  0  0  0  0  0  0  0  0  0  0  0
   -0.1520    0.0350   -1.6578 H   0  0  0  0  0  0  0  0  0  0  0  0
   -0.2639   -1.4585   -0.7656 H   0  0  0  0  0  0  0  0  0  0  0  0
    2.1100   -0.8157   -1.0598 H   0  0  0  0  0  0  0  0  0  0  0  0
    1.7866    0.6964   -0.2609 H   0  0  0  0  0  0  0  0  0  0  0  0
    1.4844   -2.0247    0.9677 H   0  0  0  0  0  0  0  0  0  0  0  0
    0.9815   -0.7255    3.0727 H   0  0  0  0  0  0  0  0  0  0  0  0
    1.1467    0.7509    2.1671 H   0  0  0  0  0  0  0  0  0  0  0  0
   -0.9690   -1.3642    1.7013 H   0  0  0  0  0  0  0  0  0  0  0  0
   -1.2036    0.2332    2.3747 H   0  0  0  0  0  0  0  0  0  0  0  0
    3.5205    0.8710    0.6158 H   0  0  0  0  0  0  0  0  0  0  0  0
    4.9168   -0.1879    0.7234 H   0  0  0  0  0  0  0  0  0  0  0  0
    4.3276    0.6209    2.1418 H   0  0  0  0  0  0  0  0  0  0  0  0
    4.5586   -2.5488    4.7194 H   0  0  0  0  0  0  0  0  0  0  0  0
    6.8654   -2.7676    5.4444 H   0  0  0  0  0  0  0  0  0  0  0  0
    8.1661   -2.1041    1.4993 H   0  0  0  0  0  0  0  0  0  0  0  0
    5.8568   -1.9480    0.7642 H   0  0  0  0  0  0  0  0  0  0  0  0
  1  2  1  0
  2  3  2  0
  2  7  1  0
  7  6  2  0
  6  5  1  0
  5  4  2  0
  4  3  1  0
  8  9  2  0
  8 13  1  0
 13 12  2  0
 12 11  1  0
 11 10  2  0
 10  9  1  0
  1  8  1  0
  1 14  1  0
 14 15  1  0
 16 17  1  0
 16 21  1  0
 21 20  1  0
 20 19  1  0
 19 18  1  0
 18 17  1  0
 15 16  1  0
 19 22  1  0
 22 23  1  0
 30 24  1  0
 22 25  1  0
 25 26  2  0
 25 27  1  0
 27 28  2  0
 32 27  1  0
 31 32  2  0
 31 30  1  0
 30 29  2  0
 29 28  1  0
  1 33  1  0
  3 34  1  0
  4 35  1  0
  5 36  1  0
  6 37  1  0
  7 38  1  0
  9 39  1  0
 10 40  1  0
 11 41  1  0
 12 42  1  0
 13 43  1  0
 14 44  1  0
 14 45  1  0
 15 46  1  0
 15 47  1  0
 16 48  1  1
 17 49  1  0
 17 50  1  0
 18 51  1  0
 18 52  1  0
 19 53  1  6
 20 54  1  0
 20 55  1  0
 21 56  1  0
 21 57  1  0
 23 58  1  0
 23 59  1  0
 23 60  1  0
 28 61  1  0
 29 62  1  0
 31 63  1  0
 32 64  1  0
M  CHG  1  16   1
M  END
>  <_TriposChargeType>  (19) 
GASTEIGER

>  <Activity>  (19) 
5.14

$$$$
CCR5_75
     RDKit          3D

 84 87  0  0  0  0  0  0  0  0999 V2000
   -3.9920    1.3305   -1.5036 C   0  0  2  0  0  0  0  0  0  0  0  0
   -4.3406    2.5970   -0.6909 C   0  0  0  0  0  0  0  0  0  0  0  0
   -5.6464    3.0948   -0.7954 C   0  0  0  0  0  0  0  0  0  0  0  0
   -6.0561    4.2114   -0.0611 C   0  0  0  0  0  0  0  0  0  0  0  0
   -5.1504    4.8600    0.7811 C   0  0  0  0  0  0  0  0  0  0  0  0
   -3.8386    4.3919    0.8730 C   0  0  0  0  0  0  0  0  0  0  0  0
   -3.4339    3.2761    0.1357 C   0  0  0  0  0  0  0  0  0  0  0  0
   -5.0539    0.2325   -1.3111 C   0  0  0  0  0  0  0  0  0  0  0  0
   -5.7110    0.0680   -0.0857 C   0  0  0  0  0  0  0  0  0  0  0  0
   -6.7264   -0.8825    0.0548 C   0  0  0  0  0  0  0  0  0  0  0  0
   -7.0567   -1.7237   -1.0119 C   0  0  0  0  0  0  0  0  0  0  0  0
   -6.3805   -1.5834   -2.2272 C   0  0  0  0  0  0  0  0  0  0  0  0
   -5.3832   -0.6153   -2.3747 C   0  0  0  0  0  0  0  0  0  0  0  0
   -2.5772    0.7198   -1.2843 C   0  0  0  0  0  0  0  0  0  0  0  0
   -2.3929    0.0649    0.1143 C   0  0  0  0  0  0  0  0  0  0  0  0
   -0.9634    0.0039    0.5204 N   0  0  2  0  0  4  0  0  0  0  0  0
   -0.0771   -0.7983   -0.3593 C   0  0  0  0  0  0  0  0  0  0  0  0
    1.4078   -0.5417    0.0022 C   0  0  0  0  0  0  0  0  0  0  0  0
    1.6818   -0.8641    1.4910 C   0  0  2  0  0  0  0  0  0  0  0  0
    0.6976   -0.0527    2.3753 C   0  0  0  0  0  0  0  0  0  0  0  0
   -0.7688   -0.3287    1.9548 C   0  0  0  0  0  0  0  0  0  0  0  0
    3.1218   -0.6540    1.7391 N   0  0  0  0  0  0  0  0  0  0  0  0
    3.6725    0.6586    2.1132 C   0  0  0  0  0  0  0  0  0  0  0  0
    3.7657    0.8401    3.6511 C   0  0  0  0  0  0  0  0  0  0  0  0
    3.9569   -1.7139    1.5212 C   0  0  0  0  0  0  0  0  0  0  0  0
    3.5214   -2.8007    1.1752 O   0  0  0  0  0  0  0  0  0  0  0  0
    5.4625   -1.6488    1.6564 C   0  0  0  0  0  0  0  0  0  0  0  0
    6.1071   -0.9037    0.4776 C   0  0  0  0  0  0  0  0  0  0  0  0
    7.1821   -0.0326    0.6909 C   0  0  0  0  0  0  0  0  0  0  0  0
    7.7337    0.6835   -0.3753 C   0  0  0  0  0  0  0  0  0  0  0  0
    7.2172    0.5332   -1.6648 C   0  0  0  0  0  0  0  0  0  0  0  0
    6.1702   -0.3646   -1.8883 C   0  0  0  0  0  0  0  0  0  0  0  0
    5.6213   -1.0839   -0.8227 C   0  0  0  0  0  0  0  0  0  0  0  0
    7.9257    1.4367   -3.0202 S   0  0  0  0  0  6  0  0  0  0  0  0
    6.9469    1.5465   -4.0840 O   0  0  0  0  0  0  0  0  0  0  0  0
    8.5665    2.6337   -2.5120 O   0  0  0  0  0  0  0  0  0  0  0  0
   -8.1286   -3.8080    0.3192 S   0  0  0  0  0  6  0  0  0  0  0  0
   -7.5401   -3.2821    1.5327 O   0  0  0  0  0  0  0  0  0  0  0  0
   -9.4605   -4.3777    0.3586 O   0  0  0  0  0  0  0  0  0  0  0  0
    9.2048    0.2831   -3.5400 C   0  0  0  0  0  0  0  0  0  0  0  0
   -7.0058   -5.0425   -0.3530 C   0  0  0  0  0  0  0  0  0  0  0  0
   -8.0740   -2.7062   -0.8816 N   0  0  0  0  0  0  0  0  0  0  0  0
   -2.9691    5.0126    1.6669 F   0  0  0  0  0  0  0  0  0  0  0  0
   -3.9838    1.6935   -2.5101 H   0  0  0  0  0  0  0  0  0  0  0  0
   -6.3175    2.6287   -1.4258 H   0  0  0  0  0  0  0  0  0  0  0  0
   -7.0257    4.5557   -0.1411 H   0  0  0  0  0  0  0  0  0  0  0  0
   -5.4490    5.6800    1.3319 H   0  0  0  0  0  0  0  0  0  0  0  0
   -2.4575    2.9483    0.2001 H   0  0  0  0  0  0  0  0  0  0  0  0
   -5.4434    0.6536    0.7208 H   0  0  0  0  0  0  0  0  0  0  0  0
   -7.2342   -0.9636    0.9495 H   0  0  0  0  0  0  0  0  0  0  0  0
   -6.6192   -2.1986   -3.0207 H   0  0  0  0  0  0  0  0  0  0  0  0
   -4.8860   -0.5250   -3.2745 H   0  0  0  0  0  0  0  0  0  0  0  0
   -1.8346    1.4771   -1.4256 H   0  0  0  0  0  0  0  0  0  0  0  0
   -2.4661   -0.0625   -2.0058 H   0  0  0  0  0  0  0  0  0  0  0  0
   -2.8110   -0.9200    0.1111 H   0  0  0  0  0  0  0  0  0  0  0  0
   -2.9048    0.6771    0.8271 H   0  0  0  0  0  0  0  0  0  0  0  0
   -0.6534    0.9665    0.3873 H   0  0  0  0  0  0  0  0  0  0  0  0
   -0.2546   -0.5511   -1.3851 H   0  0  0  0  0  0  0  0  0  0  0  0
   -0.2932   -1.8359   -0.2123 H   0  0  0  0  0  0  0  0  0  0  0  0
    2.0437   -1.1331   -0.6229 H   0  0  0  0  0  0  0  0  0  0  0  0
    1.6169    0.4952   -0.1594 H   0  0  0  0  0  0  0  0  0  0  0  0
    1.4900   -1.8837    1.7526 H   0  0  0  0  0  0  0  0  0  0  0  0
    0.8374   -0.3043    3.4059 H   0  0  0  0  0  0  0  0  0  0  0  0
    0.8993    0.9893    2.2393 H   0  0  0  0  0  0  0  0  0  0  0  0
   -1.0156   -1.3547    2.1315 H   0  0  0  0  0  0  0  0  0  0  0  0
   -1.4165    0.2887    2.5416 H   0  0  0  0  0  0  0  0  0  0  0  0
    3.0704    1.4368    1.6927 H   0  0  0  0  0  0  0  0  0  0  0  0
    4.6672    0.7125    1.7227 H   0  0  0  0  0  0  0  0  0  0  0  0
    2.7851    0.7915    4.0766 H   0  0  0  0  0  0  0  0  0  0  0  0
    4.2255    1.7772    3.8863 H   0  0  0  0  0  0  0  0  0  0  0  0
    4.3667    0.0560    4.0620 H   0  0  0  0  0  0  0  0  0  0  0  0
    5.8646   -2.6380    1.7249 H   0  0  0  0  0  0  0  0  0  0  0  0
    5.6877   -1.1049    2.5499 H   0  0  0  0  0  0  0  0  0  0  0  0
    7.5695    0.0815    1.6406 H   0  0  0  0  0  0  0  0  0  0  0  0
    8.5248    1.3251   -0.2095 H   0  0  0  0  0  0  0  0  0  0  0  0
    5.8010   -0.4971   -2.8428 H   0  0  0  0  0  0  0  0  0  0  0  0
    4.8536   -1.7515   -0.9957 H   0  0  0  0  0  0  0  0  0  0  0  0
    9.7379    0.6923   -4.3726 H   0  0  0  0  0  0  0  0  0  0  0  0
    8.7696   -0.6578   -3.8050 H   0  0  0  0  0  0  0  0  0  0  0  0
    9.8857    0.1245   -2.7300 H   0  0  0  0  0  0  0  0  0  0  0  0
   -6.9242   -5.8612    0.3310 H   0  0  0  0  0  0  0  0  0  0  0  0
   -6.0431   -4.6103   -0.5301 H   0  0  0  0  0  0  0  0  0  0  0  0
   -7.3926   -5.3997   -1.2845 H   0  0  0  0  0  0  0  0  0  0  0  0
   -8.7897   -2.7230   -1.5574 H   0  0  0  0  0  0  0  0  0  0  0  0
  1  2  1  0
  2  3  2  0
  2  7  1  0
  7  6  2  0
  6  5  1  0
  5  4  2  0
  4  3  1  0
  8  9  2  0
  8 13  1  0
 13 12  2  0
 12 11  1  0
 11 10  2  0
 10  9  1  0
  8  1  1  0
  1 14  1  0
 14 15  1  0
 16 17  1  0
 16 21  1  0
 21 20  1  0
 20 19  1  0
 19 18  1  0
 18 17  1  0
 15 16  1  0
 19 22  1  0
 22 23  1  0
 23 24  1  0
 22 25  1  0
 25 26  2  0
 25 27  1  0
 28 29  2  0
 28 33  1  0
 33 32  2  0
 32 31  1  0
 31 30  2  0
 30 29  1  0
 27 28  1  0
 34 35  2  0
 34 36  2  0
 31 34  1  0
 37 38  2  0
 37 39  2  0
 11 42  1  0
 34 40  1  0
 37 41  1  0
 37 42  1  0
  6 43  1  0
  1 44  1  6
  3 45  1  0
  4 46  1  0
  5 47  1  0
  7 48  1  0
  9 49  1  0
 10 50  1  0
 12 51  1  0
 13 52  1  0
 14 53  1  0
 14 54  1  0
 15 55  1  0
 15 56  1  0
 16 57  1  1
 17 58  1  0
 17 59  1  0
 18 60  1  0
 18 61  1  0
 19 62  1  6
 20 63  1  0
 20 64  1  0
 21 65  1  0
 21 66  1  0
 23 67  1  0
 23 68  1  0
 24 69  1  0
 24 70  1  0
 24 71  1  0
 27 72  1  0
 27 73  1  0
 29 74  1  0
 30 75  1  0
 32 76  1  0
 33 77  1  0
 40 78  1  0
 40 79  1  0
 40 80  1  0
 41 81  1  0
 41 82  1  0
 41 83  1  0
 42 84  1  0
M  CHG  1  16   1
M  END
>  <_TriposChargeType>  (20) 
GASTEIGER

>  <Activity>  (20) 
8.04

$$$$
CCR5_56
     RDKit          3D

 78 81  0  0  0  0  0  0  0  0999 V2000
   -4.0168    1.4020   -1.5104 C   0  0  0  0  0  0  0  0  0  0  0  0
   -4.3895    2.6497   -0.6795 C   0  0  0  0  0  0  0  0  0  0  0  0
   -5.7033    3.1252   -0.7846 C   0  0  0  0  0  0  0  0  0  0  0  0
   -6.1342    4.2281   -0.0422 C   0  0  0  0  0  0  0  0  0  0  0  0
   -5.2452    4.8825    0.8130 C   0  0  0  0  0  0  0  0  0  0  0  0
   -3.9264    4.4330    0.9106 C   0  0  0  0  0  0  0  0  0  0  0  0
   -3.4991    3.3315    0.1627 C   0  0  0  0  0  0  0  0  0  0  0  0
   -5.0333    0.2642   -1.3028 C   0  0  0  0  0  0  0  0  0  0  0  0
   -5.6656    0.0749   -0.0674 C   0  0  0  0  0  0  0  0  0  0  0  0
   -6.5928   -0.9569    0.1046 C   0  0  0  0  0  0  0  0  0  0  0  0
   -6.8938   -1.8124   -0.9583 C   0  0  0  0  0  0  0  0  0  0  0  0
   -6.2626   -1.6339   -2.1920 C   0  0  0  0  0  0  0  0  0  0  0  0
   -5.3356   -0.6014   -2.3609 C   0  0  0  0  0  0  0  0  0  0  0  0
   -2.5819    0.8284   -1.3200 C   0  0  0  0  0  0  0  0  0  0  0  0
   -2.3791    0.1296    0.0547 C   0  0  0  0  0  0  0  0  0  0  0  0
   -0.9468    0.0525    0.4479 N   0  0  2  0  0  4  0  0  0  0  0  0
   -0.0739   -0.7361   -0.4587 C   0  0  0  0  0  0  0  0  0  0  0  0
    1.4186   -0.5275   -0.0919 C   0  0  0  0  0  0  0  0  0  0  0  0
    1.6786   -0.8956    1.3889 C   0  0  2  0  0  0  0  0  0  0  0  0
    0.7163   -0.0824    2.2945 C   0  0  0  0  0  0  0  0  0  0  0  0
   -0.7555   -0.3214    1.8731 C   0  0  0  0  0  0  0  0  0  0  0  0
    3.1118   -0.7249    1.7110 N   0  0  0  0  0  0  0  0  0  0  0  0
    3.6926    0.6069    1.9397 C   0  0  0  0  0  0  0  0  0  0  0  0
    3.8527    0.9080    3.4539 C   0  0  0  0  0  0  0  0  0  0  0  0
    3.9048   -1.8412    1.7507 C   0  0  0  0  0  0  0  0  0  0  0  0
    3.4234   -2.9244    1.4637 O   0  0  0  0  0  0  0  0  0  0  0  0
    5.2189   -1.8164    2.0953 N   0  0  0  0  0  0  0  0  0  0  0  0
    7.0600   -2.9524    0.9994 C   0  0  0  0  0  0  0  0  0  0  0  0
    8.3475   -2.4653    1.2523 C   0  0  0  0  0  0  0  0  0  0  0  0
    9.2963   -2.4163    0.2270 C   0  0  0  0  0  0  0  0  0  0  0  0
    8.9629   -2.8447   -1.0605 C   0  0  0  0  0  0  0  0  0  0  0  0
    7.6733   -3.3170   -1.3196 C   0  0  0  0  0  0  0  0  0  0  0  0
    6.7221   -3.3596   -0.2959 C   0  0  0  0  0  0  0  0  0  0  0  0
   10.1937   -2.8383   -2.3415 S   0  0  0  0  0  6  0  0  0  0  0  0
    9.5416   -2.8949   -3.6350 O   0  0  0  0  0  0  0  0  0  0  0  0
   11.1562   -1.7883   -2.0709 O   0  0  0  0  0  0  0  0  0  0  0  0
    6.0215   -3.0417    2.1249 C   0  0  0  0  0  0  0  0  0  0  0  0
   10.9816   -4.4260   -2.0306 C   0  0  0  0  0  0  0  0  0  0  0  0
   -4.0422    1.7792   -2.5114 H   0  0  0  0  0  0  0  0  0  0  0  0
   -6.3642    2.6529   -1.4212 H   0  0  0  0  0  0  0  0  0  0  0  0
   -7.1083    4.5585   -0.1259 H   0  0  0  0  0  0  0  0  0  0  0  0
   -5.5605    5.6927    1.3691 H   0  0  0  0  0  0  0  0  0  0  0  0
   -3.2642    4.9161    1.5376 H   0  0  0  0  0  0  0  0  0  0  0  0
   -2.5186    3.0170    0.2311 H   0  0  0  0  0  0  0  0  0  0  0  0
   -5.4452    0.7021    0.7220 H   0  0  0  0  0  0  0  0  0  0  0  0
   -7.0556   -1.0870    1.0178 H   0  0  0  0  0  0  0  0  0  0  0  0
   -7.5797   -2.5732   -0.8326 H   0  0  0  0  0  0  0  0  0  0  0  0
   -6.4809   -2.2647   -2.9790 H   0  0  0  0  0  0  0  0  0  0  0  0
   -4.8700   -0.4761   -3.2734 H   0  0  0  0  0  0  0  0  0  0  0  0
   -1.8635    1.6132   -1.4333 H   0  0  0  0  0  0  0  0  0  0  0  0
   -2.4445    0.0798   -2.0721 H   0  0  0  0  0  0  0  0  0  0  0  0
   -2.7991   -0.8541    0.0253 H   0  0  0  0  0  0  0  0  0  0  0  0
   -2.8798    0.7233    0.7907 H   0  0  0  0  0  0  0  0  0  0  0  0
   -0.6227    1.0132    0.3369 H   0  0  0  0  0  0  0  0  0  0  0  0
   -0.2459   -0.4498   -1.4752 H   0  0  0  0  0  0  0  0  0  0  0  0
   -0.3115   -1.7731   -0.3441 H   0  0  0  0  0  0  0  0  0  0  0  0
    2.0391   -1.1202   -0.7310 H   0  0  0  0  0  0  0  0  0  0  0  0
    1.6579    0.5064   -0.2290 H   0  0  0  0  0  0  0  0  0  0  0  0
    1.4656   -1.9282    1.5716 H   0  0  0  0  0  0  0  0  0  0  0  0
    0.8547   -0.3584    3.3190 H   0  0  0  0  0  0  0  0  0  0  0  0
    0.9389    0.9580    2.1813 H   0  0  0  0  0  0  0  0  0  0  0  0
   -1.0199   -1.3472    2.0236 H   0  0  0  0  0  0  0  0  0  0  0  0
   -1.3911    0.2907    2.4783 H   0  0  0  0  0  0  0  0  0  0  0  0
    3.0790    1.3549    1.4828 H   0  0  0  0  0  0  0  0  0  0  0  0
    4.6667    0.6209    1.4972 H   0  0  0  0  0  0  0  0  0  0  0  0
    2.8911    0.9003    3.9232 H   0  0  0  0  0  0  0  0  0  0  0  0
    4.3261    1.8572    3.5948 H   0  0  0  0  0  0  0  0  0  0  0  0
    4.4675    0.1540    3.8994 H   0  0  0  0  0  0  0  0  0  0  0  0
    5.6401   -0.9580    2.3298 H   0  0  0  0  0  0  0  0  0  0  0  0
    8.5974   -2.1410    2.1996 H   0  0  0  0  0  0  0  0  0  0  0  0
   10.2461   -2.0626    0.4216 H   0  0  0  0  0  0  0  0  0  0  0  0
    7.4226   -3.6351   -2.2688 H   0  0  0  0  0  0  0  0  0  0  0  0
    5.7662   -3.6929   -0.4965 H   0  0  0  0  0  0  0  0  0  0  0  0
    5.3986   -3.9018    1.9937 H   0  0  0  0  0  0  0  0  0  0  0  0
    6.5106   -3.1397    3.0715 H   0  0  0  0  0  0  0  0  0  0  0  0
   11.7691   -4.5787   -2.7388 H   0  0  0  0  0  0  0  0  0  0  0  0
   10.2631   -5.2159   -2.0995 H   0  0  0  0  0  0  0  0  0  0  0  0
   11.3920   -4.4275   -1.0424 H   0  0  0  0  0  0  0  0  0  0  0  0
  1  2  1  0
  2  3  2  0
  2  7  1  0
  7  6  2  0
  6  5  1  0
  5  4  2  0
  4  3  1  0
  8  9  2  0
  8 13  1  0
 13 12  2  0
 12 11  1  0
 11 10  2  0
 10  9  1  0
  1  8  1  0
  1 14  1  0
 14 15  1  0
 16 17  1  0
 16 21  1  0
 21 20  1  0
 20 19  1  0
 19 18  1  0
 18 17  1  0
 16 15  1  0
 19 22  1  0
 22 23  1  0
 23 24  1  0
 22 25  1  0
 25 26  2  0
 25 27  1  0
 28 29  2  0
 28 33  1  0
 33 32  2  0
 32 31  1  0
 31 30  2  0
 30 29  1  0
 27 37  1  0
 34 35  2  0
 34 36  2  0
 31 34  1  0
 28 37  1  0
 34 38  1  0
  1 39  1  0
  3 40  1  0
  4 41  1  0
  5 42  1  0
  6 43  1  0
  7 44  1  0
  9 45  1  0
 10 46  1  0
 11 47  1  0
 12 48  1  0
 13 49  1  0
 14 50  1  0
 14 51  1  0
 15 52  1  0
 15 53  1  0
 16 54  1  1
 17 55  1  0
 17 56  1  0
 18 57  1  0
 18 58  1  0
 19 59  1  6
 20 60  1  0
 20 61  1  0
 21 62  1  0
 21 63  1  0
 23 64  1  0
 23 65  1  0
 24 66  1  0
 24 67  1  0
 24 68  1  0
 27 69  1  0
 29 70  1  0
 30 71  1  0
 32 72  1  0
 33 73  1  0
 37 74  1  0
 37 75  1  0
 38 76  1  0
 38 77  1  0
 38 78  1  0
M  CHG  1  16   1
M  END
>  <_TriposChargeType>  (21) 
GASTEIGER

>  <Activity>  (21) 
7.31

$$$$
CCR5_29
     RDKit          3D

 73 76  0  0  0  0  0  0  0  0999 V2000
   -3.9920    1.4323   -1.5019 C   0  0  0  0  0  0  0  0  0  0  0  0
   -4.4330    2.6813   -0.7074 C   0  0  0  0  0  0  0  0  0  0  0  0
   -5.7770    3.0671   -0.7993 C   0  0  0  0  0  0  0  0  0  0  0  0
   -6.2674    4.1559   -0.0732 C   0  0  0  0  0  0  0  0  0  0  0  0
   -5.4081    4.8906    0.7465 C   0  0  0  0  0  0  0  0  0  0  0  0
   -4.0588    4.5376    0.8214 C   0  0  0  0  0  0  0  0  0  0  0  0
   -3.5724    3.4500    0.0895 C   0  0  0  0  0  0  0  0  0  0  0  0
   -4.9709    0.2607   -1.3016 C   0  0  0  0  0  0  0  0  0  0  0  0
   -5.5980    0.0482   -0.0675 C   0  0  0  0  0  0  0  0  0  0  0  0
   -6.4876   -1.0166    0.1020 C   0  0  0  0  0  0  0  0  0  0  0  0
   -6.7557   -1.8812   -0.9623 C   0  0  0  0  0  0  0  0  0  0  0  0
   -6.1309   -1.6780   -2.1954 C   0  0  0  0  0  0  0  0  0  0  0  0
   -5.2417   -0.6124   -2.3620 C   0  0  0  0  0  0  0  0  0  0  0  0
   -2.5473    0.9053   -1.2571 C   0  0  0  0  0  0  0  0  0  0  0  0
   -2.3505    0.2831    0.1546 C   0  0  0  0  0  0  0  0  0  0  0  0
   -0.9118    0.1753    0.5181 N   0  0  2  0  0  4  0  0  0  0  0  0
   -0.1419   -0.8156   -0.2751 C   0  0  0  0  0  0  0  0  0  0  0  0
    1.3751   -0.7190    0.0277 C   0  0  0  0  0  0  0  0  0  0  0  0
    1.6532   -0.8988    1.5415 C   0  0  2  0  0  0  0  0  0  0  0  0
    0.8250    0.1707    2.3008 C   0  0  0  0  0  0  0  0  0  0  0  0
   -0.6827    0.0215    1.9772 C   0  0  0  0  0  0  0  0  0  0  0  0
    3.1122   -0.8656    1.7470 N   0  0  0  0  0  0  0  0  0  0  0  0
    3.8228    0.3530    2.1594 C   0  0  0  0  0  0  0  0  0  0  0  0
    7.1959    2.2609   -2.1406 C   0  0  0  0  0  0  0  0  0  0  0  0
    3.8117   -1.9845    1.3967 C   0  0  0  0  0  0  0  0  0  0  0  0
    3.2385   -3.0105    1.0667 O   0  0  0  0  0  0  0  0  0  0  0  0
    5.3215   -2.0442    1.3641 C   0  0  0  0  0  0  0  0  0  0  0  0
    5.8703   -0.9560    0.4314 C   0  0  0  0  0  0  0  0  0  0  0  0
    6.9310   -0.1321    0.8234 C   0  0  0  0  0  0  0  0  0  0  0  0
    7.3655    0.9020   -0.0112 C   0  0  0  0  0  0  0  0  0  0  0  0
    6.7547    1.1173   -1.2516 C   0  0  0  0  0  0  0  0  0  0  0  0
    5.7271    0.2619   -1.6631 C   0  0  0  0  0  0  0  0  0  0  0  0
    5.2957   -0.7749   -0.8313 C   0  0  0  0  0  0  0  0  0  0  0  0
    8.1017    2.9930   -1.7718 O   0  0  0  0  0  0  0  0  0  0  0  0
    6.5810    2.4513   -3.3186 O   0  0  0  0  0  0  0  0  0  0  0  0
    7.0821    3.5754   -4.0687 C   0  0  0  0  0  0  0  0  0  0  0  0
   -4.0002    1.7970   -2.5078 H   0  0  0  0  0  0  0  0  0  0  0  0
   -6.4156    2.5382   -1.4137 H   0  0  0  0  0  0  0  0  0  0  0  0
   -7.2635    4.4167   -0.1427 H   0  0  0  0  0  0  0  0  0  0  0  0
   -5.7675    5.6888    1.2931 H   0  0  0  0  0  0  0  0  0  0  0  0
   -3.4179    5.0820    1.4197 H   0  0  0  0  0  0  0  0  0  0  0  0
   -2.5697    3.2105    0.1362 H   0  0  0  0  0  0  0  0  0  0  0  0
   -5.4019    0.6825    0.7226 H   0  0  0  0  0  0  0  0  0  0  0  0
   -6.9469   -1.1643    1.0143 H   0  0  0  0  0  0  0  0  0  0  0  0
   -7.4129   -2.6671   -0.8381 H   0  0  0  0  0  0  0  0  0  0  0  0
   -6.3260   -2.3150   -2.9836 H   0  0  0  0  0  0  0  0  0  0  0  0
   -4.7810   -0.4681   -3.2741 H   0  0  0  0  0  0  0  0  0  0  0  0
   -1.8463    1.7010   -1.3993 H   0  0  0  0  0  0  0  0  0  0  0  0
   -2.3796    0.1219   -1.9664 H   0  0  0  0  0  0  0  0  0  0  0  0
   -2.8078   -0.6835    0.1922 H   0  0  0  0  0  0  0  0  0  0  0  0
   -2.8172    0.9337    0.8644 H   0  0  0  0  0  0  0  0  0  0  0  0
   -0.5296    1.0831    0.2531 H   0  0  0  0  0  0  0  0  0  0  0  0
   -0.3163   -0.6621   -1.3196 H   0  0  0  0  0  0  0  0  0  0  0  0
   -0.4749   -1.7942    0.0011 H   0  0  0  0  0  0  0  0  0  0  0  0
    1.9076   -1.4591   -0.5323 H   0  0  0  0  0  0  0  0  0  0  0  0
    1.7126    0.2544   -0.2611 H   0  0  0  0  0  0  0  0  0  0  0  0
    1.3383   -1.8415    1.9377 H   0  0  0  0  0  0  0  0  0  0  0  0
    0.9852    0.0791    3.3548 H   0  0  0  0  0  0  0  0  0  0  0  0
    1.1471    1.1400    1.9820 H   0  0  0  0  0  0  0  0  0  0  0  0
   -1.0375   -0.9325    2.3071 H   0  0  0  0  0  0  0  0  0  0  0  0
   -1.2227    0.7880    2.4928 H   0  0  0  0  0  0  0  0  0  0  0  0
    3.1128    1.1183    2.3941 H   0  0  0  0  0  0  0  0  0  0  0  0
    4.4777    0.6818    1.3797 H   0  0  0  0  0  0  0  0  0  0  0  0
    4.4109    0.1404    3.0277 H   0  0  0  0  0  0  0  0  0  0  0  0
    5.6454   -3.0095    1.0353 H   0  0  0  0  0  0  0  0  0  0  0  0
    5.6959   -1.8744    2.3520 H   0  0  0  0  0  0  0  0  0  0  0  0
    7.3945   -0.2883    1.7321 H   0  0  0  0  0  0  0  0  0  0  0  0
    8.1424    1.5110    0.2898 H   0  0  0  0  0  0  0  0  0  0  0  0
    5.2852    0.3972   -2.5859 H   0  0  0  0  0  0  0  0  0  0  0  0
    4.5484   -1.4111   -1.1505 H   0  0  0  0  0  0  0  0  0  0  0  0
    6.5435    3.6591   -4.9895 H   0  0  0  0  0  0  0  0  0  0  0  0
    8.1279    3.4560   -4.2608 H   0  0  0  0  0  0  0  0  0  0  0  0
    6.9432    4.4695   -3.4975 H   0  0  0  0  0  0  0  0  0  0  0  0
  1  2  1  0
  2  3  2  0
  2  7  1  0
  7  6  2  0
  6  5  1  0
  5  4  2  0
  4  3  1  0
  8  9  2  0
  8 13  1  0
 13 12  2  0
 12 11  1  0
 11 10  2  0
 10  9  1  0
  1  8  1  0
  1 14  1  0
 14 15  1  0
 16 17  1  0
 16 21  1  0
 21 20  1  0
 20 19  1  0
 19 18  1  0
 18 17  1  0
 15 16  1  0
 19 22  1  0
 22 23  1  0
 31 24  1  0
 22 25  1  0
 25 26  2  0
 25 27  1  0
 28 29  2  0
 33 28  1  0
 32 33  2  0
 32 31  1  0
 31 30  2  0
 30 29  1  0
 27 28  1  0
 24 34  2  0
 24 35  1  0
 35 36  1  0
  1 37  1  0
  3 38  1  0
  4 39  1  0
  5 40  1  0
  6 41  1  0
  7 42  1  0
  9 43  1  0
 10 44  1  0
 11 45  1  0
 12 46  1  0
 13 47  1  0
 14 48  1  0
 14 49  1  0
 15 50  1  0
 15 51  1  0
 16 52  1  6
 17 53  1  0
 17 54  1  0
 18 55  1  0
 18 56  1  0
 19 57  1  1
 20 58  1  0
 20 59  1  0
 21 60  1  0
 21 61  1  0
 23 62  1  0
 23 63  1  0
 23 64  1  0
 27 65  1  0
 27 66  1  0
 29 67  1  0
 30 68  1  0
 32 69  1  0
 33 70  1  0
 36 71  1  0
 36 72  1  0
 36 73  1  0
M  CHG  1  16   1
M  END
>  <_TriposChargeType>  (22) 
GASTEIGER

>  <Activity>  (22) 
6.2

$$$$
CCR5_34
     RDKit          3D

 75 78  0  0  0  0  0  0  0  0999 V2000
   -4.0036    1.4144   -1.5060 C   0  0  0  0  0  0  0  0  0  0  0  0
   -4.4195    2.6764   -0.7188 C   0  0  0  0  0  0  0  0  0  0  0  0
   -5.7471    3.1063   -0.8447 C   0  0  0  0  0  0  0  0  0  0  0  0
   -6.2163    4.2185   -0.1405 C   0  0  0  0  0  0  0  0  0  0  0  0
   -5.3524    4.9287    0.6958 C   0  0  0  0  0  0  0  0  0  0  0  0
   -4.0204    4.5252    0.8125 C   0  0  0  0  0  0  0  0  0  0  0  0
   -3.5549    3.4138    0.1031 C   0  0  0  0  0  0  0  0  0  0  0  0
   -4.9935    0.2575   -1.2777 C   0  0  0  0  0  0  0  0  0  0  0  0
   -5.6276    0.0830   -0.0410 C   0  0  0  0  0  0  0  0  0  0  0  0
   -6.5289   -0.9678    0.1522 C   0  0  0  0  0  0  0  0  0  0  0  0
   -6.8013   -1.8572   -0.8903 C   0  0  0  0  0  0  0  0  0  0  0  0
   -6.1686   -1.6930   -2.1252 C   0  0  0  0  0  0  0  0  0  0  0  0
   -5.2681   -0.6410   -2.3157 C   0  0  0  0  0  0  0  0  0  0  0  0
   -2.5584    0.8810   -1.2794 C   0  0  0  0  0  0  0  0  0  0  0  0
   -2.3594    0.2256    0.1171 C   0  0  0  0  0  0  0  0  0  0  0  0
   -0.9299    0.1322    0.5185 N   0  0  2  0  0  4  0  0  0  0  0  0
   -0.0577   -0.6423   -0.3999 C   0  0  0  0  0  0  0  0  0  0  0  0
    1.4309   -0.4902    0.0029 C   0  0  0  0  0  0  0  0  0  0  0  0
    1.6583   -0.9303    1.4687 C   0  0  2  0  0  0  0  0  0  0  0  0
    0.7075   -0.1199    2.3887 C   0  0  0  0  0  0  0  0  0  0  0  0
   -0.7639   -0.2923    1.9328 C   0  0  0  0  0  0  0  0  0  0  0  0
    3.1032   -0.8269    1.7508 N   0  0  0  0  0  0  0  0  0  0  0  0
    3.7257    0.4200    2.2232 C   0  0  0  0  0  0  0  0  0  0  0  0
    3.8034    0.4862    3.7711 C   0  0  0  0  0  0  0  0  0  0  0  0
    3.8758   -1.9193    1.4712 C   0  0  0  0  0  0  0  0  0  0  0  0
    3.3808   -2.9520    1.0481 O   0  0  0  0  0  0  0  0  0  0  0  0
    5.3803   -1.9553    1.6257 C   0  0  0  0  0  0  0  0  0  0  0  0
    6.0826   -1.1751    0.5041 C   0  0  0  0  0  0  0  0  0  0  0  0
    7.2110   -0.3945    0.7820 C   0  0  0  0  0  0  0  0  0  0  0  0
    7.8197    0.3529   -0.2303 C   0  0  0  0  0  0  0  0  0  0  0  0
    7.3046    0.3292   -1.5288 C   0  0  0  0  0  0  0  0  0  0  0  0
    6.2019   -0.4786   -1.8187 C   0  0  0  0  0  0  0  0  0  0  0  0
    5.5979   -1.2322   -0.8080 C   0  0  0  0  0  0  0  0  0  0  0  0
    8.0755    1.2970   -2.8044 S   0  0  0  0  0  6  0  0  0  0  0  0
    7.1503    1.4538   -3.9087 O   0  0  0  0  0  0  0  0  0  0  0  0
    9.4032    0.7684   -3.0447 O   0  0  0  0  0  0  0  0  0  0  0  0
    8.2205    2.7353   -2.0619 N   0  0  0  0  0  0  0  0  0  0  0  0
   -4.0236    1.7629   -2.5175 H   0  0  0  0  0  0  0  0  0  0  0  0
   -6.3895    2.5928   -1.4682 H   0  0  0  0  0  0  0  0  0  0  0  0
   -7.2000    4.5146   -0.2384 H   0  0  0  0  0  0  0  0  0  0  0  0
   -5.6958    5.7461    1.2240 H   0  0  0  0  0  0  0  0  0  0  0  0
   -3.3767    5.0498    1.4252 H   0  0  0  0  0  0  0  0  0  0  0  0
   -2.5651    3.1333    0.1852 H   0  0  0  0  0  0  0  0  0  0  0  0
   -5.4278    0.7352    0.7334 H   0  0  0  0  0  0  0  0  0  0  0  0
   -6.9937   -1.0868    1.0659 H   0  0  0  0  0  0  0  0  0  0  0  0
   -7.4674   -2.6326   -0.7487 H   0  0  0  0  0  0  0  0  0  0  0  0
   -6.3662   -2.3488   -2.8971 H   0  0  0  0  0  0  0  0  0  0  0  0
   -4.8018   -0.5257   -3.2291 H   0  0  0  0  0  0  0  0  0  0  0  0
   -1.8572    1.6795   -1.4045 H   0  0  0  0  0  0  0  0  0  0  0  0
   -2.3922    0.1154   -2.0082 H   0  0  0  0  0  0  0  0  0  0  0  0
   -2.7987   -0.7501    0.1222 H   0  0  0  0  0  0  0  0  0  0  0  0
   -2.8431    0.8592    0.8309 H   0  0  0  0  0  0  0  0  0  0  0  0
   -0.5928    1.0914    0.4369 H   0  0  0  0  0  0  0  0  0  0  0  0
   -0.2008   -0.3120   -1.4075 H   0  0  0  0  0  0  0  0  0  0  0  0
   -0.3243   -1.6762   -0.3296 H   0  0  0  0  0  0  0  0  0  0  0  0
    2.0479   -1.0688   -0.6524 H   0  0  0  0  0  0  0  0  0  0  0  0
    1.6961    0.5430   -0.0810 H   0  0  0  0  0  0  0  0  0  0  0  0
    1.4029   -1.9518    1.6589 H   0  0  0  0  0  0  0  0  0  0  0  0
    0.8176   -0.4396    3.4039 H   0  0  0  0  0  0  0  0  0  0  0  0
    0.9670    0.9159    2.3202 H   0  0  0  0  0  0  0  0  0  0  0  0
   -1.0660   -1.3124    2.0472 H   0  0  0  0  0  0  0  0  0  0  0  0
   -1.3829    0.3280    2.5468 H   0  0  0  0  0  0  0  0  0  0  0  0
    3.1786    1.2612    1.8518 H   0  0  0  0  0  0  0  0  0  0  0  0
    4.7281    0.4410    1.8495 H   0  0  0  0  0  0  0  0  0  0  0  0
    2.8146    0.4672    4.1795 H   0  0  0  0  0  0  0  0  0  0  0  0
    4.3142    1.3747    4.0787 H   0  0  0  0  0  0  0  0  0  0  0  0
    4.3495   -0.3600    4.1324 H   0  0  0  0  0  0  0  0  0  0  0  0
    5.7213   -2.9695    1.6323 H   0  0  0  0  0  0  0  0  0  0  0  0
    5.6264   -1.4868    2.5557 H   0  0  0  0  0  0  0  0  0  0  0  0
    7.5955   -0.3707    1.7394 H   0  0  0  0  0  0  0  0  0  0  0  0
    8.6525    0.9242   -0.0178 H   0  0  0  0  0  0  0  0  0  0  0  0
    5.8324   -0.5190   -2.7814 H   0  0  0  0  0  0  0  0  0  0  0  0
    4.7898   -1.8343   -1.0305 H   0  0  0  0  0  0  0  0  0  0  0  0
    8.6591    3.4031   -2.6960 H   0  0  0  0  0  0  0  0  0  0  0  0
    8.7752    2.6393   -1.2113 H   0  0  0  0  0  0  0  0  0  0  0  0
  1  2  1  0
  2  3  2  0
  2  7  1  0
  7  6  2  0
  6  5  1  0
  5  4  2  0
  4  3  1  0
  8  9  2  0
  8 13  1  0
 13 12  2  0
 12 11  1  0
 11 10  2  0
 10  9  1  0
  1  8  1  0
  1 14  1  0
 14 15  1  0
 16 17  1  0
 16 21  1  0
 21 20  1  0
 20 19  1  0
 19 18  1  0
 18 17  1  0
 15 16  1  0
 19 22  1  0
 22 23  1  0
 23 24  1  0
 22 25  1  0
 25 26  2  0
 25 27  1  0
 28 29  2  0
 28 33  1  0
 33 32  2  0
 32 31  1  0
 31 30  2  0
 30 29  1  0
 27 28  1  0
 34 35  2  0
 34 36  2  0
 31 34  1  0
 34 37  1  0
  1 38  1  0
  3 39  1  0
  4 40  1  0
  5 41  1  0
  6 42  1  0
  7 43  1  0
  9 44  1  0
 10 45  1  0
 11 46  1  0
 12 47  1  0
 13 48  1  0
 14 49  1  0
 14 50  1  0
 15 51  1  0
 15 52  1  0
 16 53  1  1
 17 54  1  0
 17 55  1  0
 18 56  1  0
 18 57  1  0
 19 58  1  6
 20 59  1  0
 20 60  1  0
 21 61  1  0
 21 62  1  0
 23 63  1  0
 23 64  1  0
 24 65  1  0
 24 66  1  0
 24 67  1  0
 27 68  1  0
 27 69  1  0
 29 70  1  0
 30 71  1  0
 32 72  1  0
 33 73  1  0
 37 74  1  0
 37 75  1  0
M  CHG  1  16   1
M  END
>  <_TriposChargeType>  (23) 
GASTEIGER

>  <Activity>  (23) 
7.42

$$$$
CCR5_69
     RDKit          3D

 83 86  0  0  0  0  0  0  0  0999 V2000
   -4.0021    1.4257   -1.4952 C   0  0  2  0  0  0  0  0  0  0  0  0
   -4.4210    2.6832   -0.7025 C   0  0  0  0  0  0  0  0  0  0  0  0
   -5.7474    3.1157   -0.8330 C   0  0  0  0  0  0  0  0  0  0  0  0
   -6.2179    4.2265   -0.1273 C   0  0  0  0  0  0  0  0  0  0  0  0
   -5.3568    4.9323    0.7155 C   0  0  0  0  0  0  0  0  0  0  0  0
   -4.0264    4.5250    0.8385 C   0  0  0  0  0  0  0  0  0  0  0  0
   -3.5596    3.4149    0.1278 C   0  0  0  0  0  0  0  0  0  0  0  0
   -4.9908    0.2648   -1.2837 C   0  0  0  0  0  0  0  0  0  0  0  0
   -5.6458    0.0837   -0.0599 C   0  0  0  0  0  0  0  0  0  0  0  0
   -6.5339   -0.9810    0.1173 C   0  0  0  0  0  0  0  0  0  0  0  0
   -6.7760   -1.8871   -0.9203 C   0  0  0  0  0  0  0  0  0  0  0  0
   -6.1402   -1.6925   -2.1518 C   0  0  0  0  0  0  0  0  0  0  0  0
   -5.2439   -0.6340   -2.3259 C   0  0  0  0  0  0  0  0  0  0  0  0
   -2.5596    0.8875   -1.2647 C   0  0  0  0  0  0  0  0  0  0  0  0
   -2.3672    0.2226    0.1283 C   0  0  0  0  0  0  0  0  0  0  0  0
   -0.9354    0.1237    0.5206 N   0  0  2  0  0  4  0  0  0  0  0  0
   -0.0895   -0.7047   -0.3752 C   0  0  0  0  0  0  0  0  0  0  0  0
    1.4075   -0.5508   -0.0072 C   0  0  0  0  0  0  0  0  0  0  0  0
    1.6570   -0.9235    1.4736 C   0  0  2  0  0  0  0  0  0  0  0  0
    0.7296   -0.0629    2.3720 C   0  0  0  0  0  0  0  0  0  0  0  0
   -0.7516   -0.2398    1.9495 C   0  0  0  0  0  0  0  0  0  0  0  0
    3.1083   -0.8171    1.7196 N   0  0  0  0  0  0  0  0  0  0  0  0
    3.7490    0.4498    2.1069 C   0  0  0  0  0  0  0  0  0  0  0  0
    3.8663    0.5963    3.6466 C   0  0  0  0  0  0  0  0  0  0  0  0
    3.8677   -1.9289    1.4840 C   0  0  0  0  0  0  0  0  0  0  0  0
    3.3567   -2.9827    1.1394 O   0  0  0  0  0  0  0  0  0  0  0  0
    5.3762   -1.9633    1.5932 C   0  0  0  0  0  0  0  0  0  0  0  0
    6.0360   -1.2602    0.3971 C   0  0  0  0  0  0  0  0  0  0  0  0
    7.1550   -0.4395    0.5826 C   0  0  0  0  0  0  0  0  0  0  0  0
    7.7191    0.2413   -0.5002 C   0  0  0  0  0  0  0  0  0  0  0  0
    7.1714    0.1057   -1.7784 C   0  0  0  0  0  0  0  0  0  0  0  0
    6.0802   -0.7445   -1.9747 C   0  0  0  0  0  0  0  0  0  0  0  0
    5.5193   -1.4292   -0.8928 C   0  0  0  0  0  0  0  0  0  0  0  0
    7.8937    0.9649   -3.1550 S   0  0  0  0  0  6  0  0  0  0  0  0
    6.8981    1.1171   -4.1977 O   0  0  0  0  0  0  0  0  0  0  0  0
    8.6042    2.1315   -2.6692 O   0  0  0  0  0  0  0  0  0  0  0  0
   -7.6264   -2.9242   -0.7184 N   0  0  0  0  0  0  0  0  0  0  0  0
   -7.3416   -4.1406   -1.1034 C   0  0  0  0  0  0  0  0  0  0  0  0
   -6.2977   -4.4423   -1.6575 O   0  0  0  0  0  0  0  0  0  0  0  0
    9.1019   -0.2541   -3.6946 C   0  0  0  0  0  0  0  0  0  0  0  0
   -8.3453   -5.2357   -0.8449 C   0  0  0  0  0  0  0  0  0  0  0  0
   -4.0186    1.7859   -2.5026 H   0  0  0  0  0  0  0  0  0  0  0  0
   -6.3878    2.6053   -1.4610 H   0  0  0  0  0  0  0  0  0  0  0  0
   -7.2006    4.5248   -0.2289 H   0  0  0  0  0  0  0  0  0  0  0  0
   -5.7010    5.7492    1.2439 H   0  0  0  0  0  0  0  0  0  0  0  0
   -3.3849    5.0458    1.4568 H   0  0  0  0  0  0  0  0  0  0  0  0
   -2.5712    3.1312    0.2152 H   0  0  0  0  0  0  0  0  0  0  0  0
   -5.4718    0.7407    0.7167 H   0  0  0  0  0  0  0  0  0  0  0  0
   -7.0155   -1.0997    1.0223 H   0  0  0  0  0  0  0  0  0  0  0  0
   -6.3343   -2.3344   -2.9362 H   0  0  0  0  0  0  0  0  0  0  0  0
   -4.7642   -0.5143   -3.2318 H   0  0  0  0  0  0  0  0  0  0  0  0
   -1.8560    1.6851   -1.3819 H   0  0  0  0  0  0  0  0  0  0  0  0
   -2.3927    0.1255   -1.9971 H   0  0  0  0  0  0  0  0  0  0  0  0
   -2.8094   -0.7517    0.1274 H   0  0  0  0  0  0  0  0  0  0  0  0
   -2.8515    0.8483    0.8486 H   0  0  0  0  0  0  0  0  0  0  0  0
   -0.5880    1.0749    0.3983 H   0  0  0  0  0  0  0  0  0  0  0  0
   -0.2478   -0.4216   -1.3948 H   0  0  0  0  0  0  0  0  0  0  0  0
   -0.3662   -1.7308   -0.2505 H   0  0  0  0  0  0  0  0  0  0  0  0
    2.0061   -1.1669   -0.6452 H   0  0  0  0  0  0  0  0  0  0  0  0
    1.6823    0.4741   -0.1451 H   0  0  0  0  0  0  0  0  0  0  0  0
    1.3962   -1.9317    1.7193 H   0  0  0  0  0  0  0  0  0  0  0  0
    0.8542   -0.3378    3.3985 H   0  0  0  0  0  0  0  0  0  0  0  0
    0.9978    0.9660    2.2521 H   0  0  0  0  0  0  0  0  0  0  0  0
   -1.0618   -1.2506    2.1138 H   0  0  0  0  0  0  0  0  0  0  0  0
   -1.3547    0.4125    2.5458 H   0  0  0  0  0  0  0  0  0  0  0  0
    3.1961    1.2732    1.7054 H   0  0  0  0  0  0  0  0  0  0  0  0
    4.7410    0.4463    1.7059 H   0  0  0  0  0  0  0  0  0  0  0  0
    2.8881    0.6033    4.0803 H   0  0  0  0  0  0  0  0  0  0  0  0
    4.3878    1.4972    3.8943 H   0  0  0  0  0  0  0  0  0  0  0  0
    4.4185   -0.2325    4.0377 H   0  0  0  0  0  0  0  0  0  0  0  0
    5.7150   -2.9765    1.6536 H   0  0  0  0  0  0  0  0  0  0  0  0
    5.6576   -1.4405    2.4834 H   0  0  0  0  0  0  0  0  0  0  0  0
    7.5656   -0.3366    1.5238 H   0  0  0  0  0  0  0  0  0  0  0  0
    8.5427    0.8460   -0.3550 H   0  0  0  0  0  0  0  0  0  0  0  0
    5.6872   -0.8673   -2.9210 H   0  0  0  0  0  0  0  0  0  0  0  0
    4.7195   -2.0631   -1.0460 H   0  0  0  0  0  0  0  0  0  0  0  0
   -8.4853   -2.7556   -0.2677 H   0  0  0  0  0  0  0  0  0  0  0  0
    9.6362    0.1232   -4.5414 H   0  0  0  0  0  0  0  0  0  0  0  0
    8.6146   -1.1736   -3.9436 H   0  0  0  0  0  0  0  0  0  0  0  0
    9.7918   -0.4418   -2.8985 H   0  0  0  0  0  0  0  0  0  0  0  0
   -9.2043   -4.8249   -0.3568 H   0  0  0  0  0  0  0  0  0  0  0  0
   -7.9083   -6.0038   -0.2416 H   0  0  0  0  0  0  0  0  0  0  0  0
   -8.6434   -5.6669   -1.7777 H   0  0  0  0  0  0  0  0  0  0  0  0
  1  2  1  0
  2  3  2  0
  2  7  1  0
  7  6  2  0
  6  5  1  0
  5  4  2  0
  4  3  1  0
  8  9  2  0
  8 13  1  0
 13 12  2  0
 12 11  1  0
 11 10  2  0
 10  9  1  0
  1  8  1  0
  1 14  1  0
 14 15  1  0
 16 17  1  0
 16 21  1  0
 21 20  1  0
 20 19  1  0
 19 18  1  0
 18 17  1  0
 15 16  1  0
 19 22  1  0
 22 23  1  0
 23 24  1  0
 22 25  1  0
 25 26  2  0
 25 27  1  0
 28 29  2  0
 28 33  1  0
 33 32  2  0
 32 31  1  0
 31 30  2  0
 30 29  1  0
 27 28  1  0
 34 35  2  0
 34 36  2  0
 31 34  1  0
 37 38  1  0
 38 39  2  0
 11 37  1  0
 34 40  1  0
 38 41  1  0
  1 42  1  6
  3 43  1  0
  4 44  1  0
  5 45  1  0
  6 46  1  0
  7 47  1  0
  9 48  1  0
 10 49  1  0
 12 50  1  0
 13 51  1  0
 14 52  1  0
 14 53  1  0
 15 54  1  0
 15 55  1  0
 16 56  1  1
 17 57  1  0
 17 58  1  0
 18 59  1  0
 18 60  1  0
 19 61  1  6
 20 62  1  0
 20 63  1  0
 21 64  1  0
 21 65  1  0
 23 66  1  0
 23 67  1  0
 24 68  1  0
 24 69  1  0
 24 70  1  0
 27 71  1  0
 27 72  1  0
 29 73  1  0
 30 74  1  0
 32 75  1  0
 33 76  1  0
 37 77  1  0
 40 78  1  0
 40 79  1  0
 40 80  1  0
 41 81  1  0
 41 82  1  0
 41 83  1  0
M  CHG  1  16   1
M  END
>  <_TriposChargeType>  (24) 
GASTEIGER

>  <Activity>  (24) 
7.59

$$$$
CCR5_66
     RDKit          3D

 80 83  0  0  0  0  0  0  0  0999 V2000
   -4.0016    1.4198   -1.5121 C   0  0  2  0  0  0  0  0  0  0  0  0
   -4.4157    2.6804   -0.7222 C   0  0  0  0  0  0  0  0  0  0  0  0
   -5.7404    3.1170   -0.8550 C   0  0  0  0  0  0  0  0  0  0  0  0
   -6.2106    4.2247   -0.1444 C   0  0  0  0  0  0  0  0  0  0  0  0
   -5.3501    4.9242    0.7042 C   0  0  0  0  0  0  0  0  0  0  0  0
   -4.0199    4.5160    0.8253 C   0  0  0  0  0  0  0  0  0  0  0  0
   -3.5532    3.4093    0.1093 C   0  0  0  0  0  0  0  0  0  0  0  0
   -4.9940    0.2659   -1.2805 C   0  0  0  0  0  0  0  0  0  0  0  0
   -5.6241    0.0946   -0.0413 C   0  0  0  0  0  0  0  0  0  0  0  0
   -6.5156   -0.9626    0.1600 C   0  0  0  0  0  0  0  0  0  0  0  0
   -6.7895   -1.8556   -0.8779 C   0  0  0  0  0  0  0  0  0  0  0  0
   -6.1646   -1.6916   -2.1160 C   0  0  0  0  0  0  0  0  0  0  0  0
   -5.2734   -0.6336   -2.3163 C   0  0  0  0  0  0  0  0  0  0  0  0
   -2.5585    0.8807   -1.2844 C   0  0  0  0  0  0  0  0  0  0  0  0
   -2.3651    0.2151    0.1084 C   0  0  0  0  0  0  0  0  0  0  0  0
   -0.9373    0.1138    0.5134 N   0  0  2  0  0  4  0  0  0  0  0  0
   -0.0626   -0.6571   -0.4057 C   0  0  0  0  0  0  0  0  0  0  0  0
    1.4249   -0.4976   -0.0014 C   0  0  0  0  0  0  0  0  0  0  0  0
    1.6544   -0.9364    1.4647 C   0  0  2  0  0  0  0  0  0  0  0  0
    0.6949   -0.1372    2.3857 C   0  0  0  0  0  0  0  0  0  0  0  0
   -0.7742   -0.3183    1.9258 C   0  0  0  0  0  0  0  0  0  0  0  0
    3.0980   -0.8159    1.7482 N   0  0  0  0  0  0  0  0  0  0  0  0
    3.7059    0.4424    2.2100 C   0  0  0  0  0  0  0  0  0  0  0  0
    3.7857    0.5202    3.7573 C   0  0  0  0  0  0  0  0  0  0  0  0
    3.8831   -1.9017    1.4787 C   0  0  0  0  0  0  0  0  0  0  0  0
    3.4000   -2.9456    1.0697 O   0  0  0  0  0  0  0  0  0  0  0  0
    5.3887   -1.9163    1.6267 C   0  0  0  0  0  0  0  0  0  0  0  0
    6.0692   -1.1410    0.4883 C   0  0  0  0  0  0  0  0  0  0  0  0
    7.1732   -0.3201    0.7475 C   0  0  0  0  0  0  0  0  0  0  0  0
    7.7550    0.4271   -0.2808 C   0  0  0  0  0  0  0  0  0  0  0  0
    7.2400    0.3580   -1.5778 C   0  0  0  0  0  0  0  0  0  0  0  0
    6.1650   -0.4924   -1.8490 C   0  0  0  0  0  0  0  0  0  0  0  0
    5.5864   -1.2431   -0.8216 C   0  0  0  0  0  0  0  0  0  0  0  0
    7.9839    1.3028   -2.8850 S   0  0  0  0  0  6  0  0  0  0  0  0
    7.0153    1.4929   -3.9468 O   0  0  0  0  0  0  0  0  0  0  0  0
    8.6576    2.4541   -2.3172 O   0  0  0  0  0  0  0  0  0  0  0  0
   -7.8794   -3.2243   -0.6021 S   0  0  0  0  0  0  0  0  0  0  0  0
    9.2304    0.1364   -3.4532 C   0  0  0  0  0  0  0  0  0  0  0  0
   -6.9084   -4.5911    0.0620 C   0  0  0  0  0  0  0  0  0  0  0  0
   -4.0190    1.7693   -2.5232 H   0  0  0  0  0  0  0  0  0  0  0  0
   -6.3798    2.6120   -1.4884 H   0  0  0  0  0  0  0  0  0  0  0  0
   -7.1925    4.5253   -0.2467 H   0  0  0  0  0  0  0  0  0  0  0  0
   -5.6947    5.7373    1.2383 H   0  0  0  0  0  0  0  0  0  0  0  0
   -3.3784    5.0337    1.4462 H   0  0  0  0  0  0  0  0  0  0  0  0
   -2.5644    3.1262    0.1936 H   0  0  0  0  0  0  0  0  0  0  0  0
   -5.4286    0.7537    0.7284 H   0  0  0  0  0  0  0  0  0  0  0  0
   -6.9724   -1.0835    1.0775 H   0  0  0  0  0  0  0  0  0  0  0  0
   -6.3611   -2.3524   -2.8840 H   0  0  0  0  0  0  0  0  0  0  0  0
   -4.8179   -0.5146   -3.2347 H   0  0  0  0  0  0  0  0  0  0  0  0
   -1.8547    1.6780   -1.4021 H   0  0  0  0  0  0  0  0  0  0  0  0
   -2.3925    0.1194   -2.0177 H   0  0  0  0  0  0  0  0  0  0  0  0
   -2.8079   -0.7590    0.1058 H   0  0  0  0  0  0  0  0  0  0  0  0
   -2.8482    0.8460    0.8250 H   0  0  0  0  0  0  0  0  0  0  0  0
   -0.5999    1.0733    0.4369 H   0  0  0  0  0  0  0  0  0  0  0  0
   -0.2068   -0.3269   -1.4132 H   0  0  0  0  0  0  0  0  0  0  0  0
   -0.3250   -1.6922   -0.3372 H   0  0  0  0  0  0  0  0  0  0  0  0
    2.0453   -1.0729   -0.6564 H   0  0  0  0  0  0  0  0  0  0  0  0
    1.6844    0.5371   -0.0847 H   0  0  0  0  0  0  0  0  0  0  0  0
    1.4085   -1.9606    1.6530 H   0  0  0  0  0  0  0  0  0  0  0  0
    0.8049   -0.4604    3.3998 H   0  0  0  0  0  0  0  0  0  0  0  0
    0.9467    0.9008    2.3218 H   0  0  0  0  0  0  0  0  0  0  0  0
   -1.0688   -1.3413    2.0330 H   0  0  0  0  0  0  0  0  0  0  0  0
   -1.4006    0.2923    2.5421 H   0  0  0  0  0  0  0  0  0  0  0  0
    3.1474    1.2740    1.8338 H   0  0  0  0  0  0  0  0  0  0  0  0
    4.7071    0.4737    1.8337 H   0  0  0  0  0  0  0  0  0  0  0  0
    2.7980    0.4912    4.1678 H   0  0  0  0  0  0  0  0  0  0  0  0
    4.2855    1.4173    4.0578 H   0  0  0  0  0  0  0  0  0  0  0  0
    4.3434   -0.3164    4.1232 H   0  0  0  0  0  0  0  0  0  0  0  0
    5.7438   -2.9255    1.6440 H   0  0  0  0  0  0  0  0  0  0  0  0
    5.6359   -1.4351    2.5498 H   0  0  0  0  0  0  0  0  0  0  0  0
    7.5596   -0.2663    1.7029 H   0  0  0  0  0  0  0  0  0  0  0  0
    8.5673    1.0316   -0.0814 H   0  0  0  0  0  0  0  0  0  0  0  0
    5.7972   -0.5665   -2.8104 H   0  0  0  0  0  0  0  0  0  0  0  0
    4.7986   -1.8763   -1.0300 H   0  0  0  0  0  0  0  0  0  0  0  0
    9.7809    0.5681   -4.2628 H   0  0  0  0  0  0  0  0  0  0  0  0
    8.7683   -0.7770   -3.7649 H   0  0  0  0  0  0  0  0  0  0  0  0
    9.9011   -0.0814   -2.6484 H   0  0  0  0  0  0  0  0  0  0  0  0
   -7.5474   -5.4313    0.2370 H   0  0  0  0  0  0  0  0  0  0  0  0
   -6.4270   -4.2962    0.9709 H   0  0  0  0  0  0  0  0  0  0  0  0
   -6.1546   -4.8640   -0.6467 H   0  0  0  0  0  0  0  0  0  0  0  0
  1  2  1  0
  2  3  2  0
  2  7  1  0
  7  6  2  0
  6  5  1  0
  5  4  2  0
  4  3  1  0
  8  9  2  0
  8 13  1  0
 13 12  2  0
 12 11  1  0
 11 10  2  0
 10  9  1  0
  1  8  1  0
  1 14  1  0
 14 15  1  0
 16 17  1  0
 16 21  1  0
 21 20  1  0
 20 19  1  0
 19 18  1  0
 18 17  1  0
 15 16  1  0
 19 22  1  0
 22 23  1  0
 23 24  1  0
 22 25  1  0
 25 26  2  0
 25 27  1  0
 28 29  2  0
 28 33  1  0
 33 32  2  0
 32 31  1  0
 31 30  2  0
 30 29  1  0
 27 28  1  0
 34 35  2  0
 34 36  2  0
 31 34  1  0
 11 37  1  0
 34 38  1  0
 37 39  1  0
  1 40  1  6
  3 41  1  0
  4 42  1  0
  5 43  1  0
  6 44  1  0
  7 45  1  0
  9 46  1  0
 10 47  1  0
 12 48  1  0
 13 49  1  0
 14 50  1  0
 14 51  1  0
 15 52  1  0
 15 53  1  0
 16 54  1  1
 17 55  1  0
 17 56  1  0
 18 57  1  0
 18 58  1  0
 19 59  1  6
 20 60  1  0
 20 61  1  0
 21 62  1  0
 21 63  1  0
 23 64  1  0
 23 65  1  0
 24 66  1  0
 24 67  1  0
 24 68  1  0
 27 69  1  0
 27 70  1  0
 29 71  1  0
 30 72  1  0
 32 73  1  0
 33 74  1  0
 38 75  1  0
 38 76  1  0
 38 77  1  0
 39 78  1  0
 39 79  1  0
 39 80  1  0
M  CHG  1  16   1
M  END
>  <_TriposChargeType>  (25) 
GASTEIGER

>  <Activity>  (25) 
7.92

$$$$
CCR5_60
     RDKit          3D

 76 79  0  0  0  0  0  0  0  0999 V2000
   -3.9984    1.4046   -1.5024 C   0  0  2  0  0  0  0  0  0  0  0  0
   -4.4084    2.6683   -0.7150 C   0  0  0  0  0  0  0  0  0  0  0  0
   -5.7257    3.1211   -0.8660 C   0  0  0  0  0  0  0  0  0  0  0  0
   -6.1929    4.2329   -0.1598 C   0  0  0  0  0  0  0  0  0  0  0  0
   -5.3364    4.9201    0.7029 C   0  0  0  0  0  0  0  0  0  0  0  0
   -4.0132    4.4953    0.8427 C   0  0  0  0  0  0  0  0  0  0  0  0
   -3.5495    3.3846    0.1310 C   0  0  0  0  0  0  0  0  0  0  0  0
   -4.9984    0.2563   -1.2765 C   0  0  0  0  0  0  0  0  0  0  0  0
   -5.6606    0.1048   -0.0519 C   0  0  0  0  0  0  0  0  0  0  0  0
   -6.5862   -0.9255    0.1341 C   0  0  0  0  0  0  0  0  0  0  0  0
   -6.8460   -1.8270   -0.9019 C   0  0  0  0  0  0  0  0  0  0  0  0
   -6.1751   -1.6936   -2.1199 C   0  0  0  0  0  0  0  0  0  0  0  0
   -5.2558   -0.6571   -2.3054 C   0  0  0  0  0  0  0  0  0  0  0  0
   -2.5568    0.8631   -1.2743 C   0  0  0  0  0  0  0  0  0  0  0  0
   -2.3651    0.1904    0.1151 C   0  0  0  0  0  0  0  0  0  0  0  0
   -0.9364    0.1012    0.5201 N   0  0  2  0  0  4  0  0  0  0  0  0
   -0.0573   -0.6656   -0.3982 C   0  0  0  0  0  0  0  0  0  0  0  0
    1.4298   -0.4934    0.0017 C   0  0  0  0  0  0  0  0  0  0  0  0
    1.6654   -0.9278    1.4680 C   0  0  2  0  0  0  0  0  0  0  0  0
    0.7037   -0.1309    2.3888 C   0  0  0  0  0  0  0  0  0  0  0  0
   -0.7660   -0.3225    1.9340 C   0  0  0  0  0  0  0  0  0  0  0  0
    3.1094   -0.8005    1.7454 N   0  0  0  0  0  0  0  0  0  0  0  0
    3.7134    0.4591    2.2082 C   0  0  0  0  0  0  0  0  0  0  0  0
    3.7975    0.5331    3.7554 C   0  0  0  0  0  0  0  0  0  0  0  0
    3.8986   -1.8817    1.4689 C   0  0  0  0  0  0  0  0  0  0  0  0
    3.4188   -2.9259    1.0567 O   0  0  0  0  0  0  0  0  0  0  0  0
    5.4047   -1.8906    1.6126 C   0  0  0  0  0  0  0  0  0  0  0  0
    6.0799   -1.1100    0.4747 C   0  0  0  0  0  0  0  0  0  0  0  0
    7.1794   -0.2831    0.7341 C   0  0  0  0  0  0  0  0  0  0  0  0
    7.7572    0.4674   -0.2939 C   0  0  0  0  0  0  0  0  0  0  0  0
    7.2429    0.3957   -1.5911 C   0  0  0  0  0  0  0  0  0  0  0  0
    6.1721   -0.4599   -1.8623 C   0  0  0  0  0  0  0  0  0  0  0  0
    5.5973   -1.2137   -0.8351 C   0  0  0  0  0  0  0  0  0  0  0  0
    7.9827    1.3442   -2.8980 S   0  0  0  0  0  6  0  0  0  0  0  0
    7.0116    1.5352   -3.9574 O   0  0  0  0  0  0  0  0  0  0  0  0
    8.6561    2.4953   -2.3294 O   0  0  0  0  0  0  0  0  0  0  0  0
   -8.0061   -3.1220   -0.6839 Cl  0  0  0  0  0  0  0  0  0  0  0  0
   -7.4156   -1.0780    1.6703 Cl  0  0  0  0  0  0  0  0  0  0  0  0
    9.2295    0.1808   -3.4714 C   0  0  0  0  0  0  0  0  0  0  0  0
   -4.0122    1.7518   -2.5144 H   0  0  0  0  0  0  0  0  0  0  0  0
   -6.3618    2.6251   -1.5097 H   0  0  0  0  0  0  0  0  0  0  0  0
   -7.1695    4.5456   -0.2757 H   0  0  0  0  0  0  0  0  0  0  0  0
   -5.6788    5.7363    1.2336 H   0  0  0  0  0  0  0  0  0  0  0  0
   -3.3747    5.0036    1.4743 H   0  0  0  0  0  0  0  0  0  0  0  0
   -2.5656    3.0891    0.2293 H   0  0  0  0  0  0  0  0  0  0  0  0
   -5.4632    0.7602    0.7205 H   0  0  0  0  0  0  0  0  0  0  0  0
   -6.3586   -2.3619   -2.8846 H   0  0  0  0  0  0  0  0  0  0  0  0
   -4.7633   -0.5646   -3.2076 H   0  0  0  0  0  0  0  0  0  0  0  0
   -1.8521    1.6603   -1.3872 H   0  0  0  0  0  0  0  0  0  0  0  0
   -2.3912    0.1046   -2.0106 H   0  0  0  0  0  0  0  0  0  0  0  0
   -2.7983   -0.7879    0.1046 H   0  0  0  0  0  0  0  0  0  0  0  0
   -2.8586    0.8090    0.8353 H   0  0  0  0  0  0  0  0  0  0  0  0
   -0.6075    1.0635    0.4412 H   0  0  0  0  0  0  0  0  0  0  0  0
   -0.2064   -0.3399   -1.4065 H   0  0  0  0  0  0  0  0  0  0  0  0
   -0.3112   -1.7025   -0.3251 H   0  0  0  0  0  0  0  0  0  0  0  0
    2.0532   -1.0651   -0.6536 H   0  0  0  0  0  0  0  0  0  0  0  0
    1.6814    0.5430   -0.0846 H   0  0  0  0  0  0  0  0  0  0  0  0
    1.4253   -1.9524    1.6615 H   0  0  0  0  0  0  0  0  0  0  0  0
    0.8187   -0.4495    3.4038 H   0  0  0  0  0  0  0  0  0  0  0  0
    0.9491    0.9083    2.3201 H   0  0  0  0  0  0  0  0  0  0  0  0
   -1.0546   -1.3466    2.0474 H   0  0  0  0  0  0  0  0  0  0  0  0
   -1.3936    0.2881    2.5490 H   0  0  0  0  0  0  0  0  0  0  0  0
    3.1503    1.2892    1.8358 H   0  0  0  0  0  0  0  0  0  0  0  0
    4.7132    0.4958    1.8288 H   0  0  0  0  0  0  0  0  0  0  0  0
    2.8112    0.4986    4.1688 H   0  0  0  0  0  0  0  0  0  0  0  0
    4.2943    1.4316    4.0568 H   0  0  0  0  0  0  0  0  0  0  0  0
    4.3600   -0.3020    4.1174 H   0  0  0  0  0  0  0  0  0  0  0  0
    5.7638   -2.8985    1.6266 H   0  0  0  0  0  0  0  0  0  0  0  0
    5.6521   -1.4102    2.5361 H   0  0  0  0  0  0  0  0  0  0  0  0
    7.5654   -0.2273    1.6896 H   0  0  0  0  0  0  0  0  0  0  0  0
    8.5661    1.0763   -0.0942 H   0  0  0  0  0  0  0  0  0  0  0  0
    5.8046   -0.5355   -2.8237 H   0  0  0  0  0  0  0  0  0  0  0  0
    4.8124   -1.8505   -1.0436 H   0  0  0  0  0  0  0  0  0  0  0  0
    9.7776    0.6150   -4.2813 H   0  0  0  0  0  0  0  0  0  0  0  0
    8.7680   -0.7326   -3.7840 H   0  0  0  0  0  0  0  0  0  0  0  0
    9.9023   -0.0378   -2.6686 H   0  0  0  0  0  0  0  0  0  0  0  0
  1  2  1  0
  2  3  2  0
  2  7  1  0
  7  6  2  0
  6  5  1  0
  5  4  2  0
  4  3  1  0
  8  9  2  0
  8 13  1  0
 13 12  2  0
 12 11  1  0
 11 10  2  0
 10  9  1  0
  1  8  1  0
  1 14  1  0
 14 15  1  0
 16 17  1  0
 16 21  1  0
 21 20  1  0
 20 19  1  0
 19 18  1  0
 18 17  1  0
 15 16  1  0
 19 22  1  0
 22 23  1  0
 23 24  1  0
 22 25  1  0
 25 26  2  0
 25 27  1  0
 28 29  2  0
 28 33  1  0
 33 32  2  0
 32 31  1  0
 31 30  2  0
 30 29  1  0
 27 28  1  0
 34 35  2  0
 34 36  2  0
 31 34  1  0
 10 38  1  0
 11 37  1  0
 34 39  1  0
  1 40  1  6
  3 41  1  0
  4 42  1  0
  5 43  1  0
  6 44  1  0
  7 45  1  0
  9 46  1  0
 12 47  1  0
 13 48  1  0
 14 49  1  0
 14 50  1  0
 15 51  1  0
 15 52  1  0
 16 53  1  1
 17 54  1  0
 17 55  1  0
 18 56  1  0
 18 57  1  0
 19 58  1  6
 20 59  1  0
 20 60  1  0
 21 61  1  0
 21 62  1  0
 23 63  1  0
 23 64  1  0
 24 65  1  0
 24 66  1  0
 24 67  1  0
 27 68  1  0
 27 69  1  0
 29 70  1  0
 30 71  1  0
 32 72  1  0
 33 73  1  0
 39 74  1  0
 39 75  1  0
 39 76  1  0
M  CHG  1  16   1
M  END
>  <_TriposChargeType>  (26) 
GASTEIGER

>  <Activity>  (26) 
7.11

$$$$
CCR5_72
     RDKit          3D

 76 79  0  0  0  0  0  0  0  0999 V2000
   -4.0036    1.3957   -1.5092 C   0  0  2  0  0  0  0  0  0  0  0  0
   -4.4034    2.6607   -0.7181 C   0  0  0  0  0  0  0  0  0  0  0  0
   -5.7317    3.0956   -0.8195 C   0  0  0  0  0  0  0  0  0  0  0  0
   -6.1846    4.2099   -0.1076 C   0  0  0  0  0  0  0  0  0  0  0  0
   -5.3011    4.9203    0.7078 C   0  0  0  0  0  0  0  0  0  0  0  0
   -3.9688    4.5135    0.7980 C   0  0  0  0  0  0  0  0  0  0  0  0
   -3.5215    3.3980    0.0854 C   0  0  0  0  0  0  0  0  0  0  0  0
   -5.0078    0.2504   -1.2844 C   0  0  0  0  0  0  0  0  0  0  0  0
   -5.6384    0.0755   -0.0459 C   0  0  0  0  0  0  0  0  0  0  0  0
   -6.5613   -0.9577    0.1402 C   0  0  0  0  0  0  0  0  0  0  0  0
   -6.8571   -1.8301   -0.9097 C   0  0  0  0  0  0  0  0  0  0  0  0
   -6.2232   -1.6696   -2.1440 C   0  0  0  0  0  0  0  0  0  0  0  0
   -5.3009   -0.6355   -2.3282 C   0  0  0  0  0  0  0  0  0  0  0  0
   -2.5644    0.8461   -1.2839 C   0  0  0  0  0  0  0  0  0  0  0  0
   -2.3669    0.2014    0.1178 C   0  0  0  0  0  0  0  0  0  0  0  0
   -0.9383    0.1065    0.5211 N   0  0  2  0  0  4  0  0  0  0  0  0
   -0.0568   -0.6547   -0.3995 C   0  0  0  0  0  0  0  0  0  0  0  0
    1.4289   -0.4820    0.0062 C   0  0  0  0  0  0  0  0  0  0  0  0
    1.6616   -0.9233    1.4710 C   0  0  2  0  0  0  0  0  0  0  0  0
    0.6948   -0.1351    2.3939 C   0  0  0  0  0  0  0  0  0  0  0  0
   -0.7723   -0.3274    1.9326 C   0  0  0  0  0  0  0  0  0  0  0  0
    3.1038   -0.7923    1.7560 N   0  0  0  0  0  0  0  0  0  0  0  0
    3.7008    0.4672    2.2284 C   0  0  0  0  0  0  0  0  0  0  0  0
    3.7770    0.5343    3.7763 C   0  0  0  0  0  0  0  0  0  0  0  0
    3.8984   -1.8694    1.4787 C   0  0  0  0  0  0  0  0  0  0  0  0
    3.4246   -2.9134    1.0592 O   0  0  0  0  0  0  0  0  0  0  0  0
    5.4036   -1.8732    1.6304 C   0  0  0  0  0  0  0  0  0  0  0  0
    6.0812   -1.0817    0.5016 C   0  0  0  0  0  0  0  0  0  0  0  0
    7.1768   -0.2532    0.7723 C   0  0  0  0  0  0  0  0  0  0  0  0
    7.7553    0.5087   -0.2469 C   0  0  0  0  0  0  0  0  0  0  0  0
    7.2459    0.4464   -1.5464 C   0  0  0  0  0  0  0  0  0  0  0  0
    6.1798   -0.4112   -1.8293 C   0  0  0  0  0  0  0  0  0  0  0  0
    5.6043   -1.1764   -0.8110 C   0  0  0  0  0  0  0  0  0  0  0  0
    7.9863    1.4098   -2.8420 S   0  0  0  0  0  6  0  0  0  0  0  0
    7.0193    1.6034   -3.9046 O   0  0  0  0  0  0  0  0  0  0  0  0
    8.6500    2.5603   -2.2608 O   0  0  0  0  0  0  0  0  0  0  0  0
   -8.0185   -3.1211   -0.6795 Cl  0  0  0  0  0  0  0  0  0  0  0  0
   -3.1205    5.1927    1.5665 F   0  0  0  0  0  0  0  0  0  0  0  0
    9.2428    0.2582   -3.4181 C   0  0  0  0  0  0  0  0  0  0  0  0
   -4.0204    1.7456   -2.5202 H   0  0  0  0  0  0  0  0  0  0  0  0
   -6.3872    2.5840   -1.4307 H   0  0  0  0  0  0  0  0  0  0  0  0
   -7.1699    4.5070   -0.1844 H   0  0  0  0  0  0  0  0  0  0  0  0
   -5.6309    5.7406    1.2402 H   0  0  0  0  0  0  0  0  0  0  0  0
   -2.5316    3.1136    0.1510 H   0  0  0  0  0  0  0  0  0  0  0  0
   -5.4200    0.7141    0.7348 H   0  0  0  0  0  0  0  0  0  0  0  0
   -7.0248   -1.0761    1.0546 H   0  0  0  0  0  0  0  0  0  0  0  0
   -6.4360   -2.3151   -2.9206 H   0  0  0  0  0  0  0  0  0  0  0  0
   -4.8323   -0.5241   -3.2409 H   0  0  0  0  0  0  0  0  0  0  0  0
   -1.8537    1.6344   -1.4199 H   0  0  0  0  0  0  0  0  0  0  0  0
   -2.4116    0.0714   -2.0060 H   0  0  0  0  0  0  0  0  0  0  0  0
   -2.8093   -0.7728    0.1308 H   0  0  0  0  0  0  0  0  0  0  0  0
   -2.8482    0.8430    0.8260 H   0  0  0  0  0  0  0  0  0  0  0  0
   -0.6074    1.0683    0.4450 H   0  0  0  0  0  0  0  0  0  0  0  0
   -0.2036   -0.3236   -1.4063 H   0  0  0  0  0  0  0  0  0  0  0  0
   -0.3099   -1.6923   -0.3338 H   0  0  0  0  0  0  0  0  0  0  0  0
    2.0553   -1.0491   -0.6502 H   0  0  0  0  0  0  0  0  0  0  0  0
    1.6784    0.5554   -0.0737 H   0  0  0  0  0  0  0  0  0  0  0  0
    1.4244   -1.9502    1.6558 H   0  0  0  0  0  0  0  0  0  0  0  0
    0.8070   -0.4604    3.4071 H   0  0  0  0  0  0  0  0  0  0  0  0
    0.9378    0.9052    2.3334 H   0  0  0  0  0  0  0  0  0  0  0  0
   -1.0584   -1.3531    2.0373 H   0  0  0  0  0  0  0  0  0  0  0  0
   -1.4040    0.2766    2.5498 H   0  0  0  0  0  0  0  0  0  0  0  0
    3.1366    1.2971    1.8572 H   0  0  0  0  0  0  0  0  0  0  0  0
    4.7025    0.5091    1.8545 H   0  0  0  0  0  0  0  0  0  0  0  0
    2.7888    0.4946    4.1846 H   0  0  0  0  0  0  0  0  0  0  0  0
    4.2693    1.4330    4.0843 H   0  0  0  0  0  0  0  0  0  0  0  0
    4.3405   -0.3006    4.1372 H   0  0  0  0  0  0  0  0  0  0  0  0
    5.7668   -2.8796    1.6391 H   0  0  0  0  0  0  0  0  0  0  0  0
    5.6443   -1.3986    2.5587 H   0  0  0  0  0  0  0  0  0  0  0  0
    7.5594   -0.2047    1.7295 H   0  0  0  0  0  0  0  0  0  0  0  0
    8.5611    1.1190   -0.0389 H   0  0  0  0  0  0  0  0  0  0  0  0
    5.8163   -0.4799   -2.7927 H   0  0  0  0  0  0  0  0  0  0  0  0
    4.8232   -1.8149   -1.0282 H   0  0  0  0  0  0  0  0  0  0  0  0
    9.7924    0.7019   -4.2218 H   0  0  0  0  0  0  0  0  0  0  0  0
    8.7883   -0.6554   -3.7401 H   0  0  0  0  0  0  0  0  0  0  0  0
    9.9128    0.0373   -2.6136 H   0  0  0  0  0  0  0  0  0  0  0  0
  1  2  1  0
  2  3  2  0
  2  7  1  0
  7  6  2  0
  6  5  1  0
  5  4  2  0
  4  3  1  0
  8  9  2  0
  8 13  1  0
 13 12  2  0
 12 11  1  0
 11 10  2  0
 10  9  1  0
  1  8  1  0
  1 14  1  0
 14 15  1  0
 16 17  1  0
 16 21  1  0
 21 20  1  0
 20 19  1  0
 19 18  1  0
 18 17  1  0
 15 16  1  0
 19 22  1  0
 22 23  1  0
 23 24  1  0
 22 25  1  0
 25 26  2  0
 25 27  1  0
 28 29  2  0
 28 33  1  0
 33 32  2  0
 32 31  1  0
 31 30  2  0
 30 29  1  0
 27 28  1  0
 34 35  2  0
 34 36  2  0
 31 34  1  0
 11 37  1  0
  6 38  1  0
 34 39  1  0
  1 40  1  6
  3 41  1  0
  4 42  1  0
  5 43  1  0
  7 44  1  0
  9 45  1  0
 10 46  1  0
 12 47  1  0
 13 48  1  0
 14 49  1  0
 14 50  1  0
 15 51  1  0
 15 52  1  0
 16 53  1  1
 17 54  1  0
 17 55  1  0
 18 56  1  0
 18 57  1  0
 19 58  1  6
 20 59  1  0
 20 60  1  0
 21 61  1  0
 21 62  1  0
 23 63  1  0
 23 64  1  0
 24 65  1  0
 24 66  1  0
 24 67  1  0
 27 68  1  0
 27 69  1  0
 29 70  1  0
 30 71  1  0
 32 72  1  0
 33 73  1  0
 39 74  1  0
 39 75  1  0
 39 76  1  0
M  CHG  1  16   1
M  END
>  <_TriposChargeType>  (27) 
GASTEIGER

>  <Activity>  (27) 
7.72

$$$$
CCR5_18
     RDKit          3D

 79 82  0  0  0  0  0  0  0  0999 V2000
   -3.9980    1.4386   -1.5066 C   0  0  0  0  0  0  0  0  0  0  0  0
   -4.4485    2.6861   -0.7148 C   0  0  0  0  0  0  0  0  0  0  0  0
   -5.7971    3.0568   -0.8013 C   0  0  0  0  0  0  0  0  0  0  0  0
   -6.2963    4.1419   -0.0756 C   0  0  0  0  0  0  0  0  0  0  0  0
   -5.4414    4.8880    0.7384 C   0  0  0  0  0  0  0  0  0  0  0  0
   -4.0878    4.5507    0.8071 C   0  0  0  0  0  0  0  0  0  0  0  0
   -3.5926    3.4671    0.0751 C   0  0  0  0  0  0  0  0  0  0  0  0
   -4.9649    0.2588   -1.2954 C   0  0  0  0  0  0  0  0  0  0  0  0
   -5.5826    0.0457   -0.0566 C   0  0  0  0  0  0  0  0  0  0  0  0
   -6.4647   -1.0239    0.1216 C   0  0  0  0  0  0  0  0  0  0  0  0
   -6.7337   -1.8938   -0.9381 C   0  0  0  0  0  0  0  0  0  0  0  0
   -6.1165   -1.6914   -2.1752 C   0  0  0  0  0  0  0  0  0  0  0  0
   -5.2350   -0.6208   -2.3506 C   0  0  0  0  0  0  0  0  0  0  0  0
   -2.5459    0.9284   -1.2684 C   0  0  0  0  0  0  0  0  0  0  0  0
   -2.3341    0.3145    0.1446 C   0  0  0  0  0  0  0  0  0  0  0  0
   -0.8930    0.2171    0.5037 N   0  0  2  0  0  4  0  0  0  0  0  0
   -0.1158   -0.7574   -0.3036 C   0  0  0  0  0  0  0  0  0  0  0  0
    1.3992   -0.6814    0.0172 C   0  0  0  0  0  0  0  0  0  0  0  0
    1.6553   -0.8962    1.5299 C   0  0  2  0  0  0  0  0  0  0  0  0
    0.8361    0.1729    2.2988 C   0  0  0  0  0  0  0  0  0  0  0  0
   -0.6705    0.0442    1.9621 C   0  0  0  0  0  0  0  0  0  0  0  0
    3.1104   -0.9045    1.7643 N   0  0  0  0  0  0  0  0  0  0  0  0
    3.8485    0.2857    2.2095 C   0  0  0  0  0  0  0  0  0  0  0  0
    7.5587   -0.6204    2.3109 O   0  0  0  0  0  0  0  0  0  0  0  0
    3.7864   -2.0393    1.4192 C   0  0  0  0  0  0  0  0  0  0  0  0
    3.1933   -3.0371    1.0410 O   0  0  0  0  0  0  0  0  0  0  0  0
    5.2934   -2.1513    1.4566 C   0  0  0  0  0  0  0  0  0  0  0  0
    5.9423   -1.0736    0.5762 C   0  0  0  0  0  0  0  0  0  0  0  0
    7.0427   -0.3447    1.0395 C   0  0  0  0  0  0  0  0  0  0  0  0
    7.6057    0.6394    0.2204 C   0  0  0  0  0  0  0  0  0  0  0  0
    7.0426    0.9324   -1.0236 C   0  0  0  0  0  0  0  0  0  0  0  0
    5.9458    0.2023   -1.4964 C   0  0  0  0  0  0  0  0  0  0  0  0
    5.4189   -0.8201   -0.6969 C   0  0  0  0  0  0  0  0  0  0  0  0
    7.9457    0.4681    3.1677 C   0  0  0  0  0  0  0  0  0  0  0  0
    7.5920    1.9615   -1.7920 O   0  0  0  0  0  0  0  0  0  0  0  0
    6.8068    3.1645   -1.8165 C   0  0  0  0  0  0  0  0  0  0  0  0
    5.4075    0.5151   -2.7554 O   0  0  0  0  0  0  0  0  0  0  0  0
    4.2848   -0.1909   -3.3085 C   0  0  0  0  0  0  0  0  0  0  0  0
   -4.0141    1.7978   -2.5144 H   0  0  0  0  0  0  0  0  0  0  0  0
   -6.4326    2.5193   -1.4114 H   0  0  0  0  0  0  0  0  0  0  0  0
   -7.2955    4.3915   -0.1412 H   0  0  0  0  0  0  0  0  0  0  0  0
   -5.8072    5.6830    1.2853 H   0  0  0  0  0  0  0  0  0  0  0  0
   -3.4502    5.1038    1.4009 H   0  0  0  0  0  0  0  0  0  0  0  0
   -2.5868    3.2398    0.1166 H   0  0  0  0  0  0  0  0  0  0  0  0
   -5.3850    0.6832    0.7306 H   0  0  0  0  0  0  0  0  0  0  0  0
   -6.9178   -1.1712    1.0370 H   0  0  0  0  0  0  0  0  0  0  0  0
   -7.3858   -2.6829   -0.8076 H   0  0  0  0  0  0  0  0  0  0  0  0
   -6.3115   -2.3327   -2.9599 H   0  0  0  0  0  0  0  0  0  0  0  0
   -4.7795   -0.4776   -3.2655 H   0  0  0  0  0  0  0  0  0  0  0  0
   -1.8545    1.7312   -1.4181 H   0  0  0  0  0  0  0  0  0  0  0  0
   -2.3737    0.1440   -1.9755 H   0  0  0  0  0  0  0  0  0  0  0  0
   -2.7850   -0.6548    0.1898 H   0  0  0  0  0  0  0  0  0  0  0  0
   -2.7994    0.9678    0.8529 H   0  0  0  0  0  0  0  0  0  0  0  0
   -0.5125    1.1288    0.2498 H   0  0  0  0  0  0  0  0  0  0  0  0
   -0.2768   -0.5773   -1.3460 H   0  0  0  0  0  0  0  0  0  0  0  0
   -0.4569   -1.7399   -0.0520 H   0  0  0  0  0  0  0  0  0  0  0  0
    1.9312   -1.4149   -0.5519 H   0  0  0  0  0  0  0  0  0  0  0  0
    1.7506    0.2938   -0.2482 H   0  0  0  0  0  0  0  0  0  0  0  0
    1.3176   -1.8418    1.8997 H   0  0  0  0  0  0  0  0  0  0  0  0
    0.9879    0.0647    3.3524 H   0  0  0  0  0  0  0  0  0  0  0  0
    1.1720    1.1430    1.9972 H   0  0  0  0  0  0  0  0  0  0  0  0
   -1.0378   -0.9094    2.2794 H   0  0  0  0  0  0  0  0  0  0  0  0
   -1.2033    0.8128    2.4821 H   0  0  0  0  0  0  0  0  0  0  0  0
    3.1574    1.0708    2.4354 H   0  0  0  0  0  0  0  0  0  0  0  0
    4.5335    0.6021    1.4508 H   0  0  0  0  0  0  0  0  0  0  0  0
    4.4068    0.0445    3.0898 H   0  0  0  0  0  0  0  0  0  0  0  0
    5.5968   -3.1237    1.1290 H   0  0  0  0  0  0  0  0  0  0  0  0
    5.6178   -2.0032    2.4654 H   0  0  0  0  0  0  0  0  0  0  0  0
    8.4430    1.1526    0.5375 H   0  0  0  0  0  0  0  0  0  0  0  0
    4.6364   -1.3926   -1.0504 H   0  0  0  0  0  0  0  0  0  0  0  0
    8.3157    0.0797    4.0935 H   0  0  0  0  0  0  0  0  0  0  0  0
    7.1120    1.1151    3.3442 H   0  0  0  0  0  0  0  0  0  0  0  0
    8.7179    1.0343    2.6901 H   0  0  0  0  0  0  0  0  0  0  0  0
    7.2955    3.8977   -2.4235 H   0  0  0  0  0  0  0  0  0  0  0  0
    6.6697    3.5377   -0.8231 H   0  0  0  0  0  0  0  0  0  0  0  0
    5.8448    2.9483   -2.2322 H   0  0  0  0  0  0  0  0  0  0  0  0
    4.0473    0.2134   -4.2703 H   0  0  0  0  0  0  0  0  0  0  0  0
    3.4406   -0.1140   -2.6556 H   0  0  0  0  0  0  0  0  0  0  0  0
    4.5372   -1.2253   -3.4143 H   0  0  0  0  0  0  0  0  0  0  0  0
  1  2  1  0
  2  3  2  0
  2  7  1  0
  7  6  2  0
  6  5  1  0
  5  4  2  0
  4  3  1  0
  8  9  2  0
  8 13  1  0
 13 12  2  0
 12 11  1  0
 11 10  2  0
 10  9  1  0
  1  8  1  0
  1 14  1  0
 14 15  1  0
 16 17  1  0
 16 21  1  0
 21 20  1  0
 20 19  1  0
 19 18  1  0
 18 17  1  0
 15 16  1  0
 19 22  1  0
 22 23  1  0
 29 24  1  0
 22 25  1  0
 25 26  2  0
 25 27  1  0
 29 28  2  0
 28 33  1  0
 33 32  2  0
 32 31  1  0
 31 30  2  0
 30 29  1  0
 27 28  1  0
 24 34  1  0
 31 35  1  0
 35 36  1  0
 32 37  1  0
 37 38  1  0
  1 39  1  0
  3 40  1  0
  4 41  1  0
  5 42  1  0
  6 43  1  0
  7 44  1  0
  9 45  1  0
 10 46  1  0
 11 47  1  0
 12 48  1  0
 13 49  1  0
 14 50  1  0
 14 51  1  0
 15 52  1  0
 15 53  1  0
 16 54  1  6
 17 55  1  0
 17 56  1  0
 18 57  1  0
 18 58  1  0
 19 59  1  1
 20 60  1  0
 20 61  1  0
 21 62  1  0
 21 63  1  0
 23 64  1  0
 23 65  1  0
 23 66  1  0
 27 67  1  0
 27 68  1  0
 30 69  1  0
 33 70  1  0
 34 71  1  0
 34 72  1  0
 34 73  1  0
 36 74  1  0
 36 75  1  0
 36 76  1  0
 38 77  1  0
 38 78  1  0
 38 79  1  0
M  CHG  1  16   1
M  END
>  <_TriposChargeType>  (28) 
GASTEIGER

>  <Activity>  (28) 
5.96

$$$$
CCR5_23
     RDKit          3D

 71 74  0  0  0  0  0  0  0  0999 V2000
   -3.9992    1.4425   -1.5079 C   0  0  0  0  0  0  0  0  0  0  0  0
   -4.4490    2.6818   -0.7027 C   0  0  0  0  0  0  0  0  0  0  0  0
   -5.8014    3.0432   -0.7671 C   0  0  0  0  0  0  0  0  0  0  0  0
   -6.2986    4.1172   -0.0237 C   0  0  0  0  0  0  0  0  0  0  0  0
   -5.4379    4.8633    0.7840 C   0  0  0  0  0  0  0  0  0  0  0  0
   -4.0804    4.5378    0.8281 C   0  0  0  0  0  0  0  0  0  0  0  0
   -3.5876    3.4648    0.0791 C   0  0  0  0  0  0  0  0  0  0  0  0
   -4.9661    0.2603   -1.3098 C   0  0  0  0  0  0  0  0  0  0  0  0
   -5.5773    0.0283   -0.0712 C   0  0  0  0  0  0  0  0  0  0  0  0
   -6.4597   -1.0429    0.0952 C   0  0  0  0  0  0  0  0  0  0  0  0
   -6.7362   -1.8954   -0.9767 C   0  0  0  0  0  0  0  0  0  0  0  0
   -6.1257   -1.6743   -2.2139 C   0  0  0  0  0  0  0  0  0  0  0  0
   -5.2432   -0.6025   -2.3771 C   0  0  0  0  0  0  0  0  0  0  0  0
   -2.5479    0.9286   -1.2723 C   0  0  0  0  0  0  0  0  0  0  0  0
   -2.3341    0.3182    0.1418 C   0  0  0  0  0  0  0  0  0  0  0  0
   -0.8901    0.2208    0.4887 N   0  0  2  0  0  4  0  0  0  0  0  0
   -0.1380   -0.8051   -0.2781 C   0  0  0  0  0  0  0  0  0  0  0  0
    1.3835   -0.7305    0.0118 C   0  0  0  0  0  0  0  0  0  0  0  0
    1.6605   -0.8648    1.5297 C   0  0  2  0  0  0  0  0  0  0  0  0
    0.8707    0.2585    2.2507 C   0  0  0  0  0  0  0  0  0  0  0  0
   -0.6437    0.1297    1.9505 C   0  0  0  0  0  0  0  0  0  0  0  0
    3.1183   -0.8937    1.7464 N   0  0  0  0  0  0  0  0  0  0  0  0
    3.8947    0.3055    2.0906 C   0  0  0  0  0  0  0  0  0  0  0  0
    7.8362    1.4849   -1.9779 O   0  0  0  0  0  0  0  0  0  0  0  0
    3.7604   -2.0692    1.4822 C   0  0  0  0  0  0  0  0  0  0  0  0
    3.1386   -3.0717    1.1679 O   0  0  0  0  0  0  0  0  0  0  0  0
    5.2622   -2.2292    1.5445 C   0  0  0  0  0  0  0  0  0  0  0  0
    5.9732   -1.2468    0.6039 C   0  0  0  0  0  0  0  0  0  0  0  0
    7.0765   -0.5036    1.0400 C   0  0  0  0  0  0  0  0  0  0  0  0
    7.6977    0.4056    0.1788 C   0  0  0  0  0  0  0  0  0  0  0  0
    7.2232    0.5717   -1.1245 C   0  0  0  0  0  0  0  0  0  0  0  0
    6.1342   -0.1811   -1.5702 C   0  0  0  0  0  0  0  0  0  0  0  0
    5.5121   -1.0884   -0.7081 C   0  0  0  0  0  0  0  0  0  0  0  0
    7.2286    2.7810   -1.9075 C   0  0  0  0  0  0  0  0  0  0  0  0
    7.8827    3.6129   -2.7607 F   0  0  0  0  0  0  0  0  0  0  0  0
    5.9189    2.7087   -2.2703 F   0  0  0  0  0  0  0  0  0  0  0  0
    7.3211    3.2752   -0.6428 F   0  0  0  0  0  0  0  0  0  0  0  0
   -4.0152    1.8126   -2.5117 H   0  0  0  0  0  0  0  0  0  0  0  0
   -6.4412    2.5071   -1.3739 H   0  0  0  0  0  0  0  0  0  0  0  0
   -7.3008    4.3586   -0.0717 H   0  0  0  0  0  0  0  0  0  0  0  0
   -5.8022    5.6496    1.3444 H   0  0  0  0  0  0  0  0  0  0  0  0
   -3.4382    5.0917    1.4161 H   0  0  0  0  0  0  0  0  0  0  0  0
   -2.5791    3.2468    0.1019 H   0  0  0  0  0  0  0  0  0  0  0  0
   -5.3746    0.6531    0.7248 H   0  0  0  0  0  0  0  0  0  0  0  0
   -6.9075   -1.2043    1.0109 H   0  0  0  0  0  0  0  0  0  0  0  0
   -7.3889   -2.6855   -0.8551 H   0  0  0  0  0  0  0  0  0  0  0  0
   -6.3264   -2.3026   -3.0076 H   0  0  0  0  0  0  0  0  0  0  0  0
   -4.7921   -0.4459   -3.2920 H   0  0  0  0  0  0  0  0  0  0  0  0
   -1.8545    1.7288   -1.4263 H   0  0  0  0  0  0  0  0  0  0  0  0
   -2.3800    0.1417   -1.9776 H   0  0  0  0  0  0  0  0  0  0  0  0
   -2.7859   -0.6504    0.1916 H   0  0  0  0  0  0  0  0  0  0  0  0
   -2.7972    0.9705    0.8523 H   0  0  0  0  0  0  0  0  0  0  0  0
   -0.5026    1.1135    0.1833 H   0  0  0  0  0  0  0  0  0  0  0  0
   -0.3157   -0.6795   -1.3257 H   0  0  0  0  0  0  0  0  0  0  0  0
   -0.4854   -1.7684    0.0323 H   0  0  0  0  0  0  0  0  0  0  0  0
    1.8969   -1.5013   -0.5241 H   0  0  0  0  0  0  0  0  0  0  0  0
    1.7431    0.2231   -0.3141 H   0  0  0  0  0  0  0  0  0  0  0  0
    1.3118   -1.7820    1.9564 H   0  0  0  0  0  0  0  0  0  0  0  0
    1.0420    0.2097    3.3058 H   0  0  0  0  0  0  0  0  0  0  0  0
    1.2126    1.2051    1.8874 H   0  0  0  0  0  0  0  0  0  0  0  0
   -1.0160   -0.7993    2.3291 H   0  0  0  0  0  0  0  0  0  0  0  0
   -1.1583    0.9329    2.4351 H   0  0  0  0  0  0  0  0  0  0  0  0
    3.2286    1.1249    2.2634 H   0  0  0  0  0  0  0  0  0  0  0  0
    4.5779    0.5434    1.3022 H   0  0  0  0  0  0  0  0  0  0  0  0
    4.4579    0.1164    2.9805 H   0  0  0  0  0  0  0  0  0  0  0  0
    5.5321   -3.2337    1.2934 H   0  0  0  0  0  0  0  0  0  0  0  0
    5.5750   -2.0122    2.5445 H   0  0  0  0  0  0  0  0  0  0  0  0
    7.4325   -0.6274    2.0007 H   0  0  0  0  0  0  0  0  0  0  0  0
    8.5078    0.9547    0.5063 H   0  0  0  0  0  0  0  0  0  0  0  0
    5.7890   -0.0673   -2.5361 H   0  0  0  0  0  0  0  0  0  0  0  0
    4.7087   -1.6443   -1.0406 H   0  0  0  0  0  0  0  0  0  0  0  0
  1  2  1  0
  2  3  2  0
  2  7  1  0
  7  6  2  0
  6  5  1  0
  5  4  2  0
  4  3  1  0
  8  9  2  0
  8 13  1  0
 13 12  2  0
 12 11  1  0
 11 10  2  0
 10  9  1  0
  1  8  1  0
  1 14  1  0
 14 15  1  0
 16 17  1  0
 16 21  1  0
 21 20  1  0
 20 19  1  0
 19 18  1  0
 18 17  1  0
 15 16  1  0
 19 22  1  0
 22 23  1  0
 24 34  1  0
 22 25  1  0
 25 26  2  0
 25 27  1  0
 28 29  2  0
 28 33  1  0
 33 32  2  0
 32 31  1  0
 31 30  2  0
 30 29  1  0
 27 28  1  0
 31 24  1  0
 34 35  1  0
 34 36  1  0
 34 37  1  0
  1 38  1  0
  3 39  1  0
  4 40  1  0
  5 41  1  0
  6 42  1  0
  7 43  1  0
  9 44  1  0
 10 45  1  0
 11 46  1  0
 12 47  1  0
 13 48  1  0
 14 49  1  0
 14 50  1  0
 15 51  1  0
 15 52  1  0
 16 53  1  6
 17 54  1  0
 17 55  1  0
 18 56  1  0
 18 57  1  0
 19 58  1  1
 20 59  1  0
 20 60  1  0
 21 61  1  0
 21 62  1  0
 23 63  1  0
 23 64  1  0
 23 65  1  0
 27 66  1  0
 27 67  1  0
 29 68  1  0
 30 69  1  0
 32 70  1  0
 33 71  1  0
M  CHG  1  16   1
M  END
>  <_TriposChargeType>  (29) 
GASTEIGER

>  <Activity>  (29) 
6.54

$$$$
CCR5_25
     RDKit          3D

 68 71  0  0  0  0  0  0  0  0999 V2000
   -3.9965    1.4245   -1.5048 C   0  0  0  0  0  0  0  0  0  0  0  0
   -4.4228    2.6768   -0.7075 C   0  0  0  0  0  0  0  0  0  0  0  0
   -5.7601    3.0830   -0.8073 C   0  0  0  0  0  0  0  0  0  0  0  0
   -6.2387    4.1779   -0.0826 C   0  0  0  0  0  0  0  0  0  0  0  0
   -5.3743    4.8967    0.7458 C   0  0  0  0  0  0  0  0  0  0  0  0
   -4.0316    4.5216    0.8309 C   0  0  0  0  0  0  0  0  0  0  0  0
   -3.5566    3.4286    0.0995 C   0  0  0  0  0  0  0  0  0  0  0  0
   -4.9822    0.2604   -1.2954 C   0  0  0  0  0  0  0  0  0  0  0  0
   -5.6110    0.0602   -0.0600 C   0  0  0  0  0  0  0  0  0  0  0  0
   -6.5083   -0.9970    0.1163 C   0  0  0  0  0  0  0  0  0  0  0  0
   -6.7818   -1.8672   -0.9420 C   0  0  0  0  0  0  0  0  0  0  0  0
   -6.1545   -1.6772   -2.1759 C   0  0  0  0  0  0  0  0  0  0  0  0
   -5.2581   -0.6188   -2.3495 C   0  0  0  0  0  0  0  0  0  0  0  0
   -2.5527    0.8898   -1.2720 C   0  0  0  0  0  0  0  0  0  0  0  0
   -2.3521    0.2544    0.1333 C   0  0  0  0  0  0  0  0  0  0  0  0
   -0.9144    0.1535    0.5026 N   0  0  2  0  0  4  0  0  0  0  0  0
   -0.1226   -0.7926   -0.3236 C   0  0  0  0  0  0  0  0  0  0  0  0
    1.3895   -0.6802   -0.0030 C   0  0  0  0  0  0  0  0  0  0  0  0
    1.6518   -0.9190    1.5038 C   0  0  2  0  0  0  0  0  0  0  0  0
    0.8007    0.0953    2.3114 C   0  0  0  0  0  0  0  0  0  0  0  0
   -0.6999   -0.0567    1.9574 C   0  0  0  0  0  0  0  0  0  0  0  0
    3.1019   -0.8414    1.7456 N   0  0  0  0  0  0  0  0  0  0  0  0
    3.7336    0.4070    2.1939 C   0  0  0  0  0  0  0  0  0  0  0  0
    7.8079    1.4273   -2.3463 C   0  0  0  0  0  0  0  0  0  0  0  0
    3.8428   -1.9526    1.4626 C   0  0  0  0  0  0  0  0  0  0  0  0
    3.3085   -2.9764    1.0671 O   0  0  0  0  0  0  0  0  0  0  0  0
    5.3469   -2.0222    1.5885 C   0  0  0  0  0  0  0  0  0  0  0  0
    6.0236   -1.1232    0.5433 C   0  0  0  0  0  0  0  0  0  0  0  0
    7.1146   -0.3171    0.8895 C   0  0  0  0  0  0  0  0  0  0  0  0
    7.7010    0.5240   -0.0609 C   0  0  0  0  0  0  0  0  0  0  0  0
    7.2082    0.5552   -1.3684 C   0  0  0  0  0  0  0  0  0  0  0  0
    6.1325   -0.2627   -1.7245 C   0  0  0  0  0  0  0  0  0  0  0  0
    5.5473   -1.1029   -0.7729 C   0  0  0  0  0  0  0  0  0  0  0  0
    8.2898    2.1282   -3.1318 N   0  0  0  0  0  0  0  0  0  0  0  0
   -4.0103    1.7870   -2.5114 H   0  0  0  0  0  0  0  0  0  0  0  0
   -6.4027    2.5647   -1.4266 H   0  0  0  0  0  0  0  0  0  0  0  0
   -7.2298    4.4549   -0.1596 H   0  0  0  0  0  0  0  0  0  0  0  0
   -5.7251    5.6994    1.2913 H   0  0  0  0  0  0  0  0  0  0  0  0
   -3.3871    5.0536    1.4364 H   0  0  0  0  0  0  0  0  0  0  0  0
   -2.5584    3.1725    0.1541 H   0  0  0  0  0  0  0  0  0  0  0  0
   -5.4103    0.6980    0.7261 H   0  0  0  0  0  0  0  0  0  0  0  0
   -6.9693   -1.1349    1.0293 H   0  0  0  0  0  0  0  0  0  0  0  0
   -7.4448   -2.6475   -0.8128 H   0  0  0  0  0  0  0  0  0  0  0  0
   -6.3531   -2.3186   -2.9596 H   0  0  0  0  0  0  0  0  0  0  0  0
   -4.7958   -0.4843   -3.2623 H   0  0  0  0  0  0  0  0  0  0  0  0
   -1.8492    1.6841   -1.4104 H   0  0  0  0  0  0  0  0  0  0  0  0
   -2.3911    0.1124   -1.9892 H   0  0  0  0  0  0  0  0  0  0  0  0
   -2.8020   -0.7161    0.1597 H   0  0  0  0  0  0  0  0  0  0  0  0
   -2.8244    0.8959    0.8477 H   0  0  0  0  0  0  0  0  0  0  0  0
   -0.5402    1.0750    0.2761 H   0  0  0  0  0  0  0  0  0  0  0  0
   -0.2914   -0.6005   -1.3626 H   0  0  0  0  0  0  0  0  0  0  0  0
   -0.4410   -1.7873   -0.0913 H   0  0  0  0  0  0  0  0  0  0  0  0
    1.9414   -1.3865   -0.5874 H   0  0  0  0  0  0  0  0  0  0  0  0
    1.7136    0.3094   -0.2489 H   0  0  0  0  0  0  0  0  0  0  0  0
    1.3502   -1.8924    1.8299 H   0  0  0  0  0  0  0  0  0  0  0  0
    0.9480   -0.0543    3.3606 H   0  0  0  0  0  0  0  0  0  0  0  0
    1.1140    1.0856    2.0545 H   0  0  0  0  0  0  0  0  0  0  0  0
   -1.0485   -1.0269    2.2438 H   0  0  0  0  0  0  0  0  0  0  0  0
   -1.2538    0.6847    2.4944 H   0  0  0  0  0  0  0  0  0  0  0  0
    2.9805    1.1488    2.3598 H   0  0  0  0  0  0  0  0  0  0  0  0
    4.4365    0.7496    1.4635 H   0  0  0  0  0  0  0  0  0  0  0  0
    4.2577    0.2270    3.1092 H   0  0  0  0  0  0  0  0  0  0  0  0
    5.6780   -3.0330    1.4719 H   0  0  0  0  0  0  0  0  0  0  0  0
    5.6206   -1.6728    2.5621 H   0  0  0  0  0  0  0  0  0  0  0  0
    7.4879   -0.3439    1.8512 H   0  0  0  0  0  0  0  0  0  0  0  0
    8.4989    1.1227    0.2034 H   0  0  0  0  0  0  0  0  0  0  0  0
    5.7700   -0.2464   -2.6906 H   0  0  0  0  0  0  0  0  0  0  0  0
    4.7591   -1.7121   -1.0424 H   0  0  0  0  0  0  0  0  0  0  0  0
  1  2  1  0
  2  3  2  0
  2  7  1  0
  7  6  2  0
  6  5  1  0
  5  4  2  0
  4  3  1  0
  8  9  2  0
  8 13  1  0
 13 12  2  0
 12 11  1  0
 11 10  2  0
 10  9  1  0
  1  8  1  0
  1 14  1  0
 14 15  1  0
 16 17  1  0
 16 21  1  0
 21 20  1  0
 20 19  1  0
 19 18  1  0
 18 17  1  0
 15 16  1  0
 19 22  1  0
 22 23  1  0
 24 34  3  0
 22 25  1  0
 25 26  2  0
 25 27  1  0
 28 29  2  0
 28 33  1  0
 33 32  2  0
 32 31  1  0
 31 30  2  0
 30 29  1  0
 27 28  1  0
 31 24  1  0
  1 35  1  0
  3 36  1  0
  4 37  1  0
  5 38  1  0
  6 39  1  0
  7 40  1  0
  9 41  1  0
 10 42  1  0
 11 43  1  0
 12 44  1  0
 13 45  1  0
 14 46  1  0
 14 47  1  0
 15 48  1  0
 15 49  1  0
 16 50  1  6
 17 51  1  0
 17 52  1  0
 18 53  1  0
 18 54  1  0
 19 55  1  1
 20 56  1  0
 20 57  1  0
 21 58  1  0
 21 59  1  0
 23 60  1  0
 23 61  1  0
 23 62  1  0
 27 63  1  0
 27 64  1  0
 29 65  1  0
 30 66  1  0
 32 67  1  0
 33 68  1  0
M  CHG  1  16   1
M  END
>  <_TriposChargeType>  (30) 
GASTEIGER

>  <Activity>  (30) 
7.22

$$$$
CCR5_64
     RDKit          3D

 80 83  0  0  0  0  0  0  0  0999 V2000
   -4.0017    1.4174   -1.5109 C   0  0  2  0  0  0  0  0  0  0  0  0
   -4.4156    2.6790   -0.7221 C   0  0  0  0  0  0  0  0  0  0  0  0
   -5.7400    3.1162   -0.8562 C   0  0  0  0  0  0  0  0  0  0  0  0
   -6.2101    4.2248   -0.1468 C   0  0  0  0  0  0  0  0  0  0  0  0
   -5.3499    4.9243    0.7021 C   0  0  0  0  0  0  0  0  0  0  0  0
   -4.0200    4.5155    0.8244 C   0  0  0  0  0  0  0  0  0  0  0  0
   -3.5533    3.4080    0.1096 C   0  0  0  0  0  0  0  0  0  0  0  0
   -4.9950    0.2642   -1.2790 C   0  0  0  0  0  0  0  0  0  0  0  0
   -5.6269    0.0948   -0.0402 C   0  0  0  0  0  0  0  0  0  0  0  0
   -6.5244   -0.9579    0.1592 C   0  0  0  0  0  0  0  0  0  0  0  0
   -6.7909   -1.8554   -0.8767 C   0  0  0  0  0  0  0  0  0  0  0  0
   -6.1712   -1.6890   -2.1169 C   0  0  0  0  0  0  0  0  0  0  0  0
   -5.2744   -0.6352   -2.3151 C   0  0  0  0  0  0  0  0  0  0  0  0
   -2.5581    0.8795   -1.2844 C   0  0  0  0  0  0  0  0  0  0  0  0
   -2.3636    0.2141    0.1082 C   0  0  0  0  0  0  0  0  0  0  0  0
   -0.9357    0.1141    0.5135 N   0  0  2  0  0  4  0  0  0  0  0  0
   -0.0588   -0.6519   -0.4076 C   0  0  0  0  0  0  0  0  0  0  0  0
    1.4281   -0.4925   -0.0008 C   0  0  0  0  0  0  0  0  0  0  0  0
    1.6562   -0.9364    1.4639 C   0  0  2  0  0  0  0  0  0  0  0  0
    0.6952   -0.1410    2.3866 C   0  0  0  0  0  0  0  0  0  0  0  0
   -0.7733   -0.3220    1.9247 C   0  0  0  0  0  0  0  0  0  0  0  0
    3.0994   -0.8162    1.7500 N   0  0  0  0  0  0  0  0  0  0  0  0
    3.7061    0.4409    2.2164 C   0  0  0  0  0  0  0  0  0  0  0  0
    3.7845    0.5143    3.7640 C   0  0  0  0  0  0  0  0  0  0  0  0
    3.8853   -1.9010    1.4786 C   0  0  0  0  0  0  0  0  0  0  0  0
    3.4032   -2.9439    1.0660 O   0  0  0  0  0  0  0  0  0  0  0  0
    5.3908   -1.9154    1.6285 C   0  0  0  0  0  0  0  0  0  0  0  0
    6.0725   -1.1361    0.4936 C   0  0  0  0  0  0  0  0  0  0  0  0
    7.1765   -0.3163    0.7566 C   0  0  0  0  0  0  0  0  0  0  0  0
    7.7592    0.4344   -0.2685 C   0  0  0  0  0  0  0  0  0  0  0  0
    7.2452    0.3700   -1.5662 C   0  0  0  0  0  0  0  0  0  0  0  0
    6.1704   -0.4792   -1.8412 C   0  0  0  0  0  0  0  0  0  0  0  0
    5.5908   -1.2335   -0.8171 C   0  0  0  0  0  0  0  0  0  0  0  0
    7.9900    1.3193   -2.8696 S   0  0  0  0  0  6  0  0  0  0  0  0
    7.0225    1.5116   -3.9320 O   0  0  0  0  0  0  0  0  0  0  0  0
    8.6620    2.4697   -2.2977 O   0  0  0  0  0  0  0  0  0  0  0  0
   -7.6727   -2.9158   -0.6724 O   0  0  0  0  0  0  0  0  0  0  0  0
    9.2382    0.1556   -3.4396 C   0  0  0  0  0  0  0  0  0  0  0  0
   -7.0332   -4.1027   -0.1772 C   0  0  0  0  0  0  0  0  0  0  0  0
   -4.0192    1.7655   -2.5226 H   0  0  0  0  0  0  0  0  0  0  0  0
   -6.3792    2.6110   -1.4896 H   0  0  0  0  0  0  0  0  0  0  0  0
   -7.1917    4.5261   -0.2502 H   0  0  0  0  0  0  0  0  0  0  0  0
   -5.6945    5.7378    1.2355 H   0  0  0  0  0  0  0  0  0  0  0  0
   -3.3787    5.0333    1.4453 H   0  0  0  0  0  0  0  0  0  0  0  0
   -2.5647    3.1243    0.1949 H   0  0  0  0  0  0  0  0  0  0  0  0
   -5.4283    0.7518    0.7304 H   0  0  0  0  0  0  0  0  0  0  0  0
   -6.9905   -1.0719    1.0728 H   0  0  0  0  0  0  0  0  0  0  0  0
   -6.3754   -2.3443   -2.8875 H   0  0  0  0  0  0  0  0  0  0  0  0
   -4.8149   -0.5193   -3.2318 H   0  0  0  0  0  0  0  0  0  0  0  0
   -1.8550    1.6774   -1.4024 H   0  0  0  0  0  0  0  0  0  0  0  0
   -2.3918    0.1185   -2.0179 H   0  0  0  0  0  0  0  0  0  0  0  0
   -2.8054   -0.7604    0.1056 H   0  0  0  0  0  0  0  0  0  0  0  0
   -2.8471    0.8447    0.8247 H   0  0  0  0  0  0  0  0  0  0  0  0
   -0.5995    1.0743    0.4400 H   0  0  0  0  0  0  0  0  0  0  0  0
   -0.2021   -0.3176   -1.4139 H   0  0  0  0  0  0  0  0  0  0  0  0
   -0.3200   -1.6875   -0.3436 H   0  0  0  0  0  0  0  0  0  0  0  0
    2.0499   -1.0648   -0.6571 H   0  0  0  0  0  0  0  0  0  0  0  0
    1.6867    0.5428   -0.0799 H   0  0  0  0  0  0  0  0  0  0  0  0
    1.4108   -1.9615    1.6479 H   0  0  0  0  0  0  0  0  0  0  0  0
    0.8046   -0.4673    3.3997 H   0  0  0  0  0  0  0  0  0  0  0  0
    0.9462    0.8974    2.3264 H   0  0  0  0  0  0  0  0  0  0  0  0
   -1.0671   -1.3456    2.0286 H   0  0  0  0  0  0  0  0  0  0  0  0
   -1.4007    0.2863    2.5422 H   0  0  0  0  0  0  0  0  0  0  0  0
    3.1476    1.2733    1.8422 H   0  0  0  0  0  0  0  0  0  0  0  0
    4.7077    0.4737    1.8413 H   0  0  0  0  0  0  0  0  0  0  0  0
    2.7964    0.4838    4.1735 H   0  0  0  0  0  0  0  0  0  0  0  0
    4.2838    1.4107    4.0675 H   0  0  0  0  0  0  0  0  0  0  0  0
    4.3422   -0.3232    4.1280 H   0  0  0  0  0  0  0  0  0  0  0  0
    5.7463   -2.9245    1.6430 H   0  0  0  0  0  0  0  0  0  0  0  0
    5.6366   -1.4370    2.5535 H   0  0  0  0  0  0  0  0  0  0  0  0
    7.5622   -0.2660    1.7125 H   0  0  0  0  0  0  0  0  0  0  0  0
    8.5715    1.0380   -0.0663 H   0  0  0  0  0  0  0  0  0  0  0  0
    5.8034   -0.5497   -2.8032 H   0  0  0  0  0  0  0  0  0  0  0  0
    4.8032   -1.8659   -1.0285 H   0  0  0  0  0  0  0  0  0  0  0  0
    9.7894    0.5902   -4.2472 H   0  0  0  0  0  0  0  0  0  0  0  0
    8.7773   -0.7572   -3.7546 H   0  0  0  0  0  0  0  0  0  0  0  0
    9.9080   -0.0641   -2.6346 H   0  0  0  0  0  0  0  0  0  0  0  0
   -7.7639   -4.8729   -0.0436 H   0  0  0  0  0  0  0  0  0  0  0  0
   -6.5376   -3.8976    0.7487 H   0  0  0  0  0  0  0  0  0  0  0  0
   -6.3023   -4.4305   -0.8866 H   0  0  0  0  0  0  0  0  0  0  0  0
  1  2  1  0
  2  3  2  0
  2  7  1  0
  7  6  2  0
  6  5  1  0
  5  4  2  0
  4  3  1  0
  8  9  2  0
  8 13  1  0
 13 12  2  0
 12 11  1  0
 11 10  2  0
 10  9  1  0
  1  8  1  0
  1 14  1  0
 14 15  1  0
 16 17  1  0
 16 21  1  0
 21 20  1  0
 20 19  1  0
 19 18  1  0
 18 17  1  0
 15 16  1  0
 19 22  1  0
 22 23  1  0
 23 24  1  0
 22 25  1  0
 25 26  2  0
 25 27  1  0
 28 29  2  0
 28 33  1  0
 33 32  2  0
 32 31  1  0
 31 30  2  0
 30 29  1  0
 27 28  1  0
 34 35  2  0
 34 36  2  0
 31 34  1  0
 11 37  1  0
 34 38  1  0
 37 39  1  0
  1 40  1  6
  3 41  1  0
  4 42  1  0
  5 43  1  0
  6 44  1  0
  7 45  1  0
  9 46  1  0
 10 47  1  0
 12 48  1  0
 13 49  1  0
 14 50  1  0
 14 51  1  0
 15 52  1  0
 15 53  1  0
 16 54  1  1
 17 55  1  0
 17 56  1  0
 18 57  1  0
 18 58  1  0
 19 59  1  6
 20 60  1  0
 20 61  1  0
 21 62  1  0
 21 63  1  0
 23 64  1  0
 23 65  1  0
 24 66  1  0
 24 67  1  0
 24 68  1  0
 27 69  1  0
 27 70  1  0
 29 71  1  0
 30 72  1  0
 32 73  1  0
 33 74  1  0
 38 75  1  0
 38 76  1  0
 38 77  1  0
 39 78  1  0
 39 79  1  0
 39 80  1  0
M  CHG  1  16   1
M  END
>  <_TriposChargeType>  (31) 
GASTEIGER

>  <Activity>  (31) 
8.2

$$$$
CCR5_59
     RDKit          3D

 76 79  0  0  0  0  0  0  0  0999 V2000
   -4.0056    1.4249   -1.5038 C   0  0  2  0  0  0  0  0  0  0  0  0
   -4.4235    2.6867   -0.7175 C   0  0  0  0  0  0  0  0  0  0  0  0
   -5.7443    3.1297   -0.8672 C   0  0  0  0  0  0  0  0  0  0  0  0
   -6.2165    4.2434   -0.1675 C   0  0  0  0  0  0  0  0  0  0  0  0
   -5.3627    4.9410    0.6894 C   0  0  0  0  0  0  0  0  0  0  0  0
   -4.0374    4.5237    0.8312 C   0  0  0  0  0  0  0  0  0  0  0  0
   -3.5686    3.4111    0.1258 C   0  0  0  0  0  0  0  0  0  0  0  0
   -4.9878    0.2629   -1.2689 C   0  0  0  0  0  0  0  0  0  0  0  0
   -5.6443    0.1056   -0.0416 C   0  0  0  0  0  0  0  0  0  0  0  0
   -6.5360   -0.9527    0.1558 C   0  0  0  0  0  0  0  0  0  0  0  0
   -6.7713   -1.8701   -0.8714 C   0  0  0  0  0  0  0  0  0  0  0  0
   -6.1149   -1.7244   -2.0957 C   0  0  0  0  0  0  0  0  0  0  0  0
   -5.2302   -0.6607   -2.2925 C   0  0  0  0  0  0  0  0  0  0  0  0
   -2.5579    0.8976   -1.2800 C   0  0  0  0  0  0  0  0  0  0  0  0
   -2.3635    0.2197    0.1065 C   0  0  0  0  0  0  0  0  0  0  0  0
   -0.9356    0.1247    0.5128 N   0  0  2  0  0  4  0  0  0  0  0  0
   -0.0576   -0.6343   -0.4131 C   0  0  0  0  0  0  0  0  0  0  0  0
    1.4289   -0.4827   -0.0029 C   0  0  0  0  0  0  0  0  0  0  0  0
    1.6523   -0.9407    1.4581 C   0  0  2  0  0  0  0  0  0  0  0  0
    0.6946   -0.1472    2.3855 C   0  0  0  0  0  0  0  0  0  0  0  0
   -0.7743   -0.3197    1.9214 C   0  0  0  0  0  0  0  0  0  0  0  0
    3.0955   -0.8316    1.7467 N   0  0  0  0  0  0  0  0  0  0  0  0
    3.7091    0.4176    2.2248 C   0  0  0  0  0  0  0  0  0  0  0  0
    3.7843    0.4767    3.7730 C   0  0  0  0  0  0  0  0  0  0  0  0
    3.8750   -1.9189    1.4666 C   0  0  0  0  0  0  0  0  0  0  0  0
    3.3873   -2.9551    1.0438 O   0  0  0  0  0  0  0  0  0  0  0  0
    5.3800   -1.9440    1.6187 C   0  0  0  0  0  0  0  0  0  0  0  0
    6.0672   -1.1595    0.4909 C   0  0  0  0  0  0  0  0  0  0  0  0
    7.1719   -0.3436    0.7627 C   0  0  0  0  0  0  0  0  0  0  0  0
    7.7597    0.4120   -0.2558 C   0  0  0  0  0  0  0  0  0  0  0  0
    7.2505    0.3560   -1.5557 C   0  0  0  0  0  0  0  0  0  0  0  0
    6.1747   -0.4891   -1.8396 C   0  0  0  0  0  0  0  0  0  0  0  0
    5.5899   -1.2482   -0.8220 C   0  0  0  0  0  0  0  0  0  0  0  0
    8.0029    1.3110   -2.8506 S   0  0  0  0  0  6  0  0  0  0  0  0
    7.0384    1.5177   -3.9130 O   0  0  0  0  0  0  0  0  0  0  0  0
    8.6811    2.4525   -2.2686 O   0  0  0  0  0  0  0  0  0  0  0  0
   -6.4007   -2.8760   -3.3845 Cl  0  0  0  0  0  0  0  0  0  0  0  0
    9.2445    0.1439   -3.4276 C   0  0  0  0  0  0  0  0  0  0  0  0
   -4.0323    1.7721   -2.5155 H   0  0  0  0  0  0  0  0  0  0  0  0
   -6.3793    2.6249   -1.5051 H   0  0  0  0  0  0  0  0  0  0  0  0
   -7.1950    4.5499   -0.2839 H   0  0  0  0  0  0  0  0  0  0  0  0
   -5.7086    5.7594    1.2144 H   0  0  0  0  0  0  0  0  0  0  0  0
   -3.4012    5.0389    1.4595 H   0  0  0  0  0  0  0  0  0  0  0  0
   -2.5836    3.1201    0.2268 H   0  0  0  0  0  0  0  0  0  0  0  0
   -5.4683    0.7762    0.7228 H   0  0  0  0  0  0  0  0  0  0  0  0
   -7.0208   -1.0565    1.0609 H   0  0  0  0  0  0  0  0  0  0  0  0
   -7.4280   -2.6528   -0.7260 H   0  0  0  0  0  0  0  0  0  0  0  0
   -4.7513   -0.5551   -3.2005 H   0  0  0  0  0  0  0  0  0  0  0  0
   -1.8615    1.7029   -1.3872 H   0  0  0  0  0  0  0  0  0  0  0  0
   -2.3814    0.1468   -2.0216 H   0  0  0  0  0  0  0  0  0  0  0  0
   -2.7993   -0.7574    0.0933 H   0  0  0  0  0  0  0  0  0  0  0  0
   -2.8530    0.8394    0.8285 H   0  0  0  0  0  0  0  0  0  0  0  0
   -0.6009    1.0860    0.4468 H   0  0  0  0  0  0  0  0  0  0  0  0
   -0.1982   -0.2906   -1.4166 H   0  0  0  0  0  0  0  0  0  0  0  0
   -0.3209   -1.6699   -0.3580 H   0  0  0  0  0  0  0  0  0  0  0  0
    2.0501   -1.0510   -0.6632 H   0  0  0  0  0  0  0  0  0  0  0  0
    1.6912    0.5523   -0.0727 H   0  0  0  0  0  0  0  0  0  0  0  0
    1.4008   -1.9658    1.6336 H   0  0  0  0  0  0  0  0  0  0  0  0
    0.8022   -0.4804    3.3966 H   0  0  0  0  0  0  0  0  0  0  0  0
    0.9499    0.8906    2.3324 H   0  0  0  0  0  0  0  0  0  0  0  0
   -1.0722   -1.3427    2.0196 H   0  0  0  0  0  0  0  0  0  0  0  0
   -1.3990    0.2883    2.5419 H   0  0  0  0  0  0  0  0  0  0  0  0
    3.1566    1.2567    1.8566 H   0  0  0  0  0  0  0  0  0  0  0  0
    4.7116    0.4477    1.8519 H   0  0  0  0  0  0  0  0  0  0  0  0
    2.7951    0.4484    4.1800 H   0  0  0  0  0  0  0  0  0  0  0  0
    4.2882    1.3673    4.0857 H   0  0  0  0  0  0  0  0  0  0  0  0
    4.3361   -0.3673    4.1308 H   0  0  0  0  0  0  0  0  0  0  0  0
    5.7294   -2.9553    1.6252 H   0  0  0  0  0  0  0  0  0  0  0  0
    5.6278   -1.4753    2.5481 H   0  0  0  0  0  0  0  0  0  0  0  0
    7.5543   -0.2998    1.7202 H   0  0  0  0  0  0  0  0  0  0  0  0
    8.5722    1.0130   -0.0470 H   0  0  0  0  0  0  0  0  0  0  0  0
    5.8109   -0.5530   -2.8032 H   0  0  0  0  0  0  0  0  0  0  0  0
    4.8017   -1.8777   -1.0399 H   0  0  0  0  0  0  0  0  0  0  0  0
    9.7997    0.5812   -4.2310 H   0  0  0  0  0  0  0  0  0  0  0  0
    8.7783   -0.7636   -3.7503 H   0  0  0  0  0  0  0  0  0  0  0  0
    9.9117   -0.0862   -2.6233 H   0  0  0  0  0  0  0  0  0  0  0  0
  1  2  1  0
  2  3  2  0
  2  7  1  0
  7  6  2  0
  6  5  1  0
  5  4  2  0
  4  3  1  0
  8  9  2  0
  8 13  1  0
 13 12  2  0
 12 11  1  0
 11 10  2  0
 10  9  1  0
  1  8  1  0
  1 14  1  0
 14 15  1  0
 16 17  1  0
 16 21  1  0
 21 20  1  0
 20 19  1  0
 19 18  1  0
 18 17  1  0
 15 16  1  0
 19 22  1  0
 22 23  1  0
 23 24  1  0
 22 25  1  0
 25 26  2  0
 25 27  1  0
 28 29  2  0
 28 33  1  0
 33 32  2  0
 32 31  1  0
 31 30  2  0
 30 29  1  0
 27 28  1  0
 34 35  2  0
 34 36  2  0
 31 34  1  0
 12 37  1  0
 34 38  1  0
  1 39  1  6
  3 40  1  0
  4 41  1  0
  5 42  1  0
  6 43  1  0
  7 44  1  0
  9 45  1  0
 10 46  1  0
 11 47  1  0
 13 48  1  0
 14 49  1  0
 14 50  1  0
 15 51  1  0
 15 52  1  0
 16 53  1  1
 17 54  1  0
 17 55  1  0
 18 56  1  0
 18 57  1  0
 19 58  1  6
 20 59  1  0
 20 60  1  0
 21 61  1  0
 21 62  1  0
 23 63  1  0
 23 64  1  0
 24 65  1  0
 24 66  1  0
 24 67  1  0
 27 68  1  0
 27 69  1  0
 29 70  1  0
 30 71  1  0
 32 72  1  0
 33 73  1  0
 38 74  1  0
 38 75  1  0
 38 76  1  0
M  CHG  1  16   1
M  END
>  <_TriposChargeType>  (32) 
GASTEIGER

>  <Activity>  (32) 
7.24

$$$$
CCR5_55
     RDKit          3D

 76 79  0  0  0  0  0  0  0  0999 V2000
   -4.0102    1.3853   -1.5096 C   0  0  0  0  0  0  0  0  0  0  0  0
   -4.3799    2.6467   -0.6984 C   0  0  0  0  0  0  0  0  0  0  0  0
   -5.6873    3.1339   -0.8261 C   0  0  0  0  0  0  0  0  0  0  0  0
   -6.1148    4.2534   -0.1070 C   0  0  0  0  0  0  0  0  0  0  0  0
   -5.2288    4.9119    0.7483 C   0  0  0  0  0  0  0  0  0  0  0  0
   -3.9170    4.4485    0.8708 C   0  0  0  0  0  0  0  0  0  0  0  0
   -3.4933    3.3297    0.1470 C   0  0  0  0  0  0  0  0  0  0  0  0
   -5.0317    0.2550   -1.2878 C   0  0  0  0  0  0  0  0  0  0  0  0
   -5.6725    0.0904   -0.0531 C   0  0  0  0  0  0  0  0  0  0  0  0
   -6.6044   -0.9349    0.1317 C   0  0  0  0  0  0  0  0  0  0  0  0
   -6.9015   -1.8087   -0.9172 C   0  0  0  0  0  0  0  0  0  0  0  0
   -6.2619   -1.6550   -2.1499 C   0  0  0  0  0  0  0  0  0  0  0  0
   -5.3302   -0.6289   -2.3317 C   0  0  0  0  0  0  0  0  0  0  0  0
   -2.5770    0.8113   -1.3081 C   0  0  0  0  0  0  0  0  0  0  0  0
   -2.3841    0.1170    0.0704 C   0  0  0  0  0  0  0  0  0  0  0  0
   -0.9571    0.0376    0.4815 N   0  0  2  0  0  4  0  0  0  0  0  0
   -0.0564   -0.6985   -0.4413 C   0  0  0  0  0  0  0  0  0  0  0  0
    1.4248   -0.4793   -0.0382 C   0  0  0  0  0  0  0  0  0  0  0  0
    1.6672   -0.9070    1.4289 C   0  0  2  0  0  0  0  0  0  0  0  0
    0.6724   -0.1539    2.3526 C   0  0  0  0  0  0  0  0  0  0  0  0
   -0.7864   -0.3990    1.8914 C   0  0  0  0  0  0  0  0  0  0  0  0
    3.0965   -0.7287    1.7593 N   0  0  0  0  0  0  0  0  0  0  0  0
    3.6444    0.5825    2.1375 C   0  0  0  0  0  0  0  0  0  0  0  0
    3.7804    0.7261    3.6764 C   0  0  0  0  0  0  0  0  0  0  0  0
    3.9241   -1.8113    1.6284 C   0  0  0  0  0  0  0  0  0  0  0  0
    3.4759   -2.8477    1.1668 O   0  0  0  0  0  0  0  0  0  0  0  0
    5.2351   -1.8003    1.9836 N   0  0  0  0  0  0  0  0  0  0  0  0
    6.9134   -2.6752    0.4918 C   0  0  0  0  0  0  0  0  0  0  0  0
    8.2074   -2.1499    0.5904 C   0  0  0  0  0  0  0  0  0  0  0  0
    8.9514   -1.8889   -0.5639 C   0  0  0  0  0  0  0  0  0  0  0  0
    8.4032   -2.1460   -1.8226 C   0  0  0  0  0  0  0  0  0  0  0  0
    7.1136   -2.6727   -1.9262 C   0  0  0  0  0  0  0  0  0  0  0  0
    6.3683   -2.9299   -0.7717 C   0  0  0  0  0  0  0  0  0  0  0  0
    6.0890   -2.9669    1.7518 C   0  0  0  0  0  0  0  0  0  0  0  0
    9.1432   -1.8760   -2.9731 O   0  0  0  0  0  0  0  0  0  0  0  0
    8.9015   -0.5686   -3.5164 C   0  0  0  0  0  0  0  0  0  0  0  0
   -4.0325    1.7462   -2.5167 H   0  0  0  0  0  0  0  0  0  0  0  0
   -6.3460    2.6579   -1.4621 H   0  0  0  0  0  0  0  0  0  0  0  0
   -7.0841    4.5930   -0.2079 H   0  0  0  0  0  0  0  0  0  0  0  0
   -5.5412    5.7354    1.2862 H   0  0  0  0  0  0  0  0  0  0  0  0
   -3.2573    4.9341    1.4985 H   0  0  0  0  0  0  0  0  0  0  0  0
   -2.5183    3.0032    0.2357 H   0  0  0  0  0  0  0  0  0  0  0  0
   -5.4549    0.7311    0.7261 H   0  0  0  0  0  0  0  0  0  0  0  0
   -7.0736   -1.0466    1.0441 H   0  0  0  0  0  0  0  0  0  0  0  0
   -7.5908   -2.5648   -0.7820 H   0  0  0  0  0  0  0  0  0  0  0  0
   -6.4775   -2.2994   -2.9266 H   0  0  0  0  0  0  0  0  0  0  0  0
   -4.8583   -0.5220   -3.2432 H   0  0  0  0  0  0  0  0  0  0  0  0
   -1.8573    1.5952   -1.4192 H   0  0  0  0  0  0  0  0  0  0  0  0
   -2.4350    0.0602   -2.0569 H   0  0  0  0  0  0  0  0  0  0  0  0
   -2.8056   -0.8660    0.0407 H   0  0  0  0  0  0  0  0  0  0  0  0
   -2.8884    0.7174    0.7985 H   0  0  0  0  0  0  0  0  0  0  0  0
   -0.6440    1.0060    0.4144 H   0  0  0  0  0  0  0  0  0  0  0  0
   -0.2156   -0.3731   -1.4481 H   0  0  0  0  0  0  0  0  0  0  0  0
   -0.2782   -1.7432   -0.3753 H   0  0  0  0  0  0  0  0  0  0  0  0
    2.0675   -1.0316   -0.6915 H   0  0  0  0  0  0  0  0  0  0  0  0
    1.6458    0.5640   -0.1250 H   0  0  0  0  0  0  0  0  0  0  0  0
    1.4671   -1.9470    1.5817 H   0  0  0  0  0  0  0  0  0  0  0  0
    0.7964   -0.4751    3.3657 H   0  0  0  0  0  0  0  0  0  0  0  0
    0.8777    0.8945    2.2924 H   0  0  0  0  0  0  0  0  0  0  0  0
   -1.0345   -1.4353    1.9889 H   0  0  0  0  0  0  0  0  0  0  0  0
   -1.4448    0.1727    2.5115 H   0  0  0  0  0  0  0  0  0  0  0  0
    3.0200    1.3619    1.7534 H   0  0  0  0  0  0  0  0  0  0  0  0
    4.6237    0.6622    1.7139 H   0  0  0  0  0  0  0  0  0  0  0  0
    2.8138    0.6503    4.1290 H   0  0  0  0  0  0  0  0  0  0  0  0
    4.2321    1.6644    3.9224 H   0  0  0  0  0  0  0  0  0  0  0  0
    4.4057   -0.0582    4.0489 H   0  0  0  0  0  0  0  0  0  0  0  0
    5.6169   -0.9957    2.4033 H   0  0  0  0  0  0  0  0  0  0  0  0
    8.6135   -1.9546    1.5188 H   0  0  0  0  0  0  0  0  0  0  0  0
    9.9065   -1.5059   -0.4860 H   0  0  0  0  0  0  0  0  0  0  0  0
    6.7109   -2.8720   -2.8552 H   0  0  0  0  0  0  0  0  0  0  0  0
    5.4119   -3.3093   -0.8516 H   0  0  0  0  0  0  0  0  0  0  0  0
    5.4974   -3.8488    1.6211 H   0  0  0  0  0  0  0  0  0  0  0  0
    6.7290   -3.1409    2.5915 H   0  0  0  0  0  0  0  0  0  0  0  0
    9.4991   -0.4301   -4.3931 H   0  0  0  0  0  0  0  0  0  0  0  0
    9.1303    0.1827   -2.7896 H   0  0  0  0  0  0  0  0  0  0  0  0
    7.8676   -0.4821   -3.7782 H   0  0  0  0  0  0  0  0  0  0  0  0
  1  2  1  0
  2  3  2  0
  2  7  1  0
  7  6  2  0
  6  5  1  0
  5  4  2  0
  4  3  1  0
  8  9  2  0
  8 13  1  0
 13 12  2  0
 12 11  1  0
 11 10  2  0
 10  9  1  0
  1  8  1  0
  1 14  1  0
 14 15  1  0
 16 17  1  0
 16 21  1  0
 21 20  1  0
 20 19  1  0
 19 18  1  0
 18 17  1  0
 16 15  1  0
 19 22  1  0
 22 23  1  0
 23 24  1  0
 22 25  1  0
 25 26  2  0
 25 27  1  0
 28 29  2  0
 28 33  1  0
 33 32  2  0
 32 31  1  0
 31 30  2  0
 30 29  1  0
 27 34  1  0
 28 34  1  0
 31 35  1  0
 35 36  1  0
  1 37  1  0
  3 38  1  0
  4 39  1  0
  5 40  1  0
  6 41  1  0
  7 42  1  0
  9 43  1  0
 10 44  1  0
 11 45  1  0
 12 46  1  0
 13 47  1  0
 14 48  1  0
 14 49  1  0
 15 50  1  0
 15 51  1  0
 16 52  1  1
 17 53  1  0
 17 54  1  0
 18 55  1  0
 18 56  1  0
 19 57  1  6
 20 58  1  0
 20 59  1  0
 21 60  1  0
 21 61  1  0
 23 62  1  0
 23 63  1  0
 24 64  1  0
 24 65  1  0
 24 66  1  0
 27 67  1  0
 29 68  1  0
 30 69  1  0
 32 70  1  0
 33 71  1  0
 34 72  1  0
 34 73  1  0
 36 74  1  0
 36 75  1  0
 36 76  1  0
M  CHG  1  16   1
M  END
>  <_TriposChargeType>  (33) 
GASTEIGER

>  <Activity>  (33) 
7.38

$$$$
CCR5_49
     RDKit          3D

 69 72  0  0  0  0  0  0  0  0999 V2000
   -3.9979    1.4614   -1.4983 C   0  0  0  0  0  0  0  0  0  0  0  0
   -4.5003    2.7213   -0.7601 C   0  0  0  0  0  0  0  0  0  0  0  0
   -5.8568    3.0478   -0.8904 C   0  0  0  0  0  0  0  0  0  0  0  0
   -6.4020    4.1497   -0.2260 C   0  0  0  0  0  0  0  0  0  0  0  0
   -5.5867    4.9550    0.5720 C   0  0  0  0  0  0  0  0  0  0  0  0
   -4.2274    4.6562    0.6898 C   0  0  0  0  0  0  0  0  0  0  0  0
   -3.6861    3.5542    0.0205 C   0  0  0  0  0  0  0  0  0  0  0  0
   -4.9182    0.2549   -1.2384 C   0  0  0  0  0  0  0  0  0  0  0  0
   -5.5348    0.0747    0.0062 C   0  0  0  0  0  0  0  0  0  0  0  0
   -6.3711   -1.0224    0.2312 C   0  0  0  0  0  0  0  0  0  0  0  0
   -6.5944   -1.9530   -0.7869 C   0  0  0  0  0  0  0  0  0  0  0  0
   -5.9792   -1.7825   -2.0297 C   0  0  0  0  0  0  0  0  0  0  0  0
   -5.1447   -0.6834   -2.2525 C   0  0  0  0  0  0  0  0  0  0  0  0
   -2.5262    1.0203   -1.2429 C   0  0  0  0  0  0  0  0  0  0  0  0
   -2.2988    0.4275    0.1771 C   0  0  0  0  0  0  0  0  0  0  0  0
   -0.8627    0.3253    0.5564 N   0  0  2  0  0  4  0  0  0  0  0  0
   -0.0180   -0.4616   -0.3788 C   0  0  0  0  0  0  0  0  0  0  0  0
    1.4778   -0.4432    0.0315 C   0  0  0  0  0  0  0  0  0  0  0  0
    1.6509   -0.9399    1.4869 C   0  0  2  0  0  0  0  0  0  0  0  0
    0.7952   -0.0155    2.3942 C   0  0  0  0  0  0  0  0  0  0  0  0
   -0.6943   -0.0926    1.9733 C   0  0  0  0  0  0  0  0  0  0  0  0
    3.0880   -1.0710    1.7969 N   0  0  0  0  0  0  0  0  0  0  0  0
    3.8483   -0.0619    2.5432 C   0  0  0  0  0  0  0  0  0  0  0  0
    5.0510   -2.4134    1.5216 N   0  0  0  0  0  0  0  0  0  0  0  0
    3.7338   -2.1736    1.3134 C   0  0  0  0  0  0  0  0  0  0  0  0
    3.1165   -2.9973    0.6579 O   0  0  0  0  0  0  0  0  0  0  0  0
    5.6558   -3.6150    0.9473 C   0  0  0  0  0  0  0  0  0  0  0  0
    7.1800   -3.6148    1.1386 C   0  0  0  0  0  0  0  0  0  0  0  0
    7.9528   -2.6609    0.4671 C   0  0  0  0  0  0  0  0  0  0  0  0
    9.3422   -2.6410    0.6198 C   0  0  0  0  0  0  0  0  0  0  0  0
    9.9670   -3.5775    1.4478 C   0  0  0  0  0  0  0  0  0  0  0  0
    9.1998   -4.5305    2.1234 C   0  0  0  0  0  0  0  0  0  0  0  0
    7.8101   -4.5476    1.9709 C   0  0  0  0  0  0  0  0  0  0  0  0
   -4.0254    1.7777   -2.5201 H   0  0  0  0  0  0  0  0  0  0  0  0
   -6.4637    2.4644   -1.4874 H   0  0  0  0  0  0  0  0  0  0  0  0
   -7.4058    4.3680   -0.3250 H   0  0  0  0  0  0  0  0  0  0  0  0
   -5.9857    5.7653    1.0712 H   0  0  0  0  0  0  0  0  0  0  0  0
   -3.6195    5.2517    1.2737 H   0  0  0  0  0  0  0  0  0  0  0  0
   -2.6774    3.3519    0.1019 H   0  0  0  0  0  0  0  0  0  0  0  0
   -5.3704    0.7571    0.7628 H   0  0  0  0  0  0  0  0  0  0  0  0
   -6.8241   -1.1452    1.1503 H   0  0  0  0  0  0  0  0  0  0  0  0
   -7.2116   -2.7634   -0.6214 H   0  0  0  0  0  0  0  0  0  0  0  0
   -6.1410   -2.4684   -2.7836 H   0  0  0  0  0  0  0  0  0  0  0  0
   -4.6919   -0.5626   -3.1720 H   0  0  0  0  0  0  0  0  0  0  0  0
   -1.8710    1.8528   -1.3932 H   0  0  0  0  0  0  0  0  0  0  0  0
   -2.3120    0.2390   -1.9419 H   0  0  0  0  0  0  0  0  0  0  0  0
   -2.7550   -0.5384    0.2390 H   0  0  0  0  0  0  0  0  0  0  0  0
   -2.7505    1.1076    0.8687 H   0  0  0  0  0  0  0  0  0  0  0  0
   -0.5009    1.2749    0.4684 H   0  0  0  0  0  0  0  0  0  0  0  0
   -0.1260   -0.0807   -1.3728 H   0  0  0  0  0  0  0  0  0  0  0  0
   -0.3517   -1.4775   -0.3391 H   0  0  0  0  0  0  0  0  0  0  0  0
    2.0487   -1.0551   -0.6353 H   0  0  0  0  0  0  0  0  0  0  0  0
    1.8330    0.5644   -0.0273 H   0  0  0  0  0  0  0  0  0  0  0  0
    1.2800   -1.9283    1.6612 H   0  0  0  0  0  0  0  0  0  0  0  0
    0.9042   -0.3013    3.4195 H   0  0  0  0  0  0  0  0  0  0  0  0
    1.1356    0.9926    2.2812 H   0  0  0  0  0  0  0  0  0  0  0  0
   -1.0624   -1.0882    2.1082 H   0  0  0  0  0  0  0  0  0  0  0  0
   -1.2558    0.5757    2.5922 H   0  0  0  0  0  0  0  0  0  0  0  0
    3.1926    0.7276    2.8460 H   0  0  0  0  0  0  0  0  0  0  0  0
    4.6413    0.3264    1.9387 H   0  0  0  0  0  0  0  0  0  0  0  0
    4.2768   -0.5159    3.4122 H   0  0  0  0  0  0  0  0  0  0  0  0
    5.5940   -1.7869    2.0526 H   0  0  0  0  0  0  0  0  0  0  0  0
    5.4184   -3.6815   -0.0939 H   0  0  0  0  0  0  0  0  0  0  0  0
    5.2560   -4.4660    1.4581 H   0  0  0  0  0  0  0  0  0  0  0  0
    7.4942   -1.9678   -0.1447 H   0  0  0  0  0  0  0  0  0  0  0  0
    9.9063   -1.9351    0.1213 H   0  0  0  0  0  0  0  0  0  0  0  0
   10.9928   -3.5654    1.5601 H   0  0  0  0  0  0  0  0  0  0  0  0
    9.6596   -5.2225    2.7356 H   0  0  0  0  0  0  0  0  0  0  0  0
    7.2465   -5.2507    2.4739 H   0  0  0  0  0  0  0  0  0  0  0  0
  1  2  1  0
  2  3  2  0
  2  7  1  0
  7  6  2  0
  6  5  1  0
  5  4  2  0
  4  3  1  0
  8  9  2  0
  8 13  1  0
 13 12  2  0
 12 11  1  0
 11 10  2  0
 10  9  1  0
  1  8  1  0
  1 14  1  0
 14 15  1  0
 17 16  1  0
 21 16  1  0
 20 21  1  0
 19 20  1  0
 19 18  1  0
 18 17  1  0
 16 15  1  0
 22 19  1  0
 22 23  1  0
 25 24  1  0
 22 25  1  0
 25 26  2  0
 24 27  1  0
 28 29  2  0
 28 33  1  0
 33 32  2  0
 32 31  1  0
 31 30  2  0
 30 29  1  0
 28 27  1  0
  1 34  1  0
  3 35  1  0
  4 36  1  0
  5 37  1  0
  6 38  1  0
  7 39  1  0
  9 40  1  0
 10 41  1  0
 11 42  1  0
 12 43  1  0
 13 44  1  0
 14 45  1  0
 14 46  1  0
 15 47  1  0
 15 48  1  0
 16 49  1  1
 17 50  1  0
 17 51  1  0
 18 52  1  0
 18 53  1  0
 19 54  1  6
 20 55  1  0
 20 56  1  0
 21 57  1  0
 21 58  1  0
 23 59  1  0
 23 60  1  0
 23 61  1  0
 24 62  1  0
 27 63  1  0
 27 64  1  0
 29 65  1  0
 30 66  1  0
 31 67  1  0
 32 68  1  0
 33 69  1  0
M  CHG  1  16   1
M  END
>  <_TriposChargeType>  (34) 
GASTEIGER

>  <Activity>  (34) 
7.00

$$$$
CCR5_05
     RDKit          3D

 67 70  0  0  0  0  0  0  0  0999 V2000
   -3.9969    1.4283   -1.5034 C   0  0  0  0  0  0  0  0  0  0  0  0
   -4.4295    2.6801   -0.7087 C   0  0  0  0  0  0  0  0  0  0  0  0
   -5.7676    3.0823   -0.8143 C   0  0  0  0  0  0  0  0  0  0  0  0
   -6.2520    4.1770   -0.0930 C   0  0  0  0  0  0  0  0  0  0  0  0
   -5.3930    4.8988    0.7383 C   0  0  0  0  0  0  0  0  0  0  0  0
   -4.0498    4.5272    0.8297 C   0  0  0  0  0  0  0  0  0  0  0  0
   -3.5687    3.4348    0.1012 C   0  0  0  0  0  0  0  0  0  0  0  0
   -4.9782    0.2608   -1.2921 C   0  0  0  0  0  0  0  0  0  0  0  0
   -5.6074    0.0613   -0.0568 C   0  0  0  0  0  0  0  0  0  0  0  0
   -6.5025   -0.9975    0.1206 C   0  0  0  0  0  0  0  0  0  0  0  0
   -6.7727   -1.8706   -0.9362 C   0  0  0  0  0  0  0  0  0  0  0  0
   -6.1438   -1.6822   -2.1696 C   0  0  0  0  0  0  0  0  0  0  0  0
   -5.2498   -0.6219   -2.3444 C   0  0  0  0  0  0  0  0  0  0  0  0
   -2.5504    0.9009   -1.2703 C   0  0  0  0  0  0  0  0  0  0  0  0
   -2.3469    0.2647    0.1341 C   0  0  0  0  0  0  0  0  0  0  0  0
   -0.9084    0.1655    0.5019 N   0  0  2  0  0  4  0  0  0  0  0  0
   -0.1165   -0.7782   -0.3273 C   0  0  0  0  0  0  0  0  0  0  0  0
    1.3954   -0.6747   -0.0026 C   0  0  0  0  0  0  0  0  0  0  0  0
    1.6535   -0.9219    1.5037 C   0  0  2  0  0  0  0  0  0  0  0  0
    0.8066    0.0951    2.3119 C   0  0  0  0  0  0  0  0  0  0  0  0
   -0.6943   -0.0491    1.9561 C   0  0  0  0  0  0  0  0  0  0  0  0
    3.1036   -0.8561    1.7489 N   0  0  0  0  0  0  0  0  0  0  0  0
    3.7459    0.3858    2.2012 C   0  0  0  0  0  0  0  0  0  0  0  0
    7.8706   -0.4522    2.5042 Cl  0  0  0  0  0  0  0  0  0  0  0  0
    3.8372   -1.9701    1.4579 C   0  0  0  0  0  0  0  0  0  0  0  0
    3.2966   -2.9897    1.0598 O   0  0  0  0  0  0  0  0  0  0  0  0
    5.3412   -2.0446    1.5816 C   0  0  0  0  0  0  0  0  0  0  0  0
    6.0267   -1.1135    0.5679 C   0  0  0  0  0  0  0  0  0  0  0  0
    7.1483   -0.3454    0.9099 C   0  0  0  0  0  0  0  0  0  0  0  0
    7.7153    0.5264   -0.0243 C   0  0  0  0  0  0  0  0  0  0  0  0
    7.1821    0.6267   -1.3117 C   0  0  0  0  0  0  0  0  0  0  0  0
    6.0822   -0.1575   -1.6673 C   0  0  0  0  0  0  0  0  0  0  0  0
    5.5156   -1.0291   -0.7333 C   0  0  0  0  0  0  0  0  0  0  0  0
   -4.0114    1.7885   -2.5109 H   0  0  0  0  0  0  0  0  0  0  0  0
   -6.4063    2.5613   -1.4353 H   0  0  0  0  0  0  0  0  0  0  0  0
   -7.2434    4.4516   -0.1747 H   0  0  0  0  0  0  0  0  0  0  0  0
   -5.7482    5.7013    1.2814 H   0  0  0  0  0  0  0  0  0  0  0  0
   -3.4094    5.0613    1.4377 H   0  0  0  0  0  0  0  0  0  0  0  0
   -2.5700    3.1815    0.1602 H   0  0  0  0  0  0  0  0  0  0  0  0
   -5.4086    0.7009    0.7284 H   0  0  0  0  0  0  0  0  0  0  0  0
   -6.9644   -1.1345    1.0333 H   0  0  0  0  0  0  0  0  0  0  0  0
   -7.4344   -2.6518   -0.8063 H   0  0  0  0  0  0  0  0  0  0  0  0
   -6.3394   -2.3262   -2.9519 H   0  0  0  0  0  0  0  0  0  0  0  0
   -4.7861   -0.4886   -3.2567 H   0  0  0  0  0  0  0  0  0  0  0  0
   -1.8511    1.6991   -1.4074 H   0  0  0  0  0  0  0  0  0  0  0  0
   -2.3845    0.1251   -1.9883 H   0  0  0  0  0  0  0  0  0  0  0  0
   -2.7953   -0.7064    0.1603 H   0  0  0  0  0  0  0  0  0  0  0  0
   -2.8191    0.9051    0.8495 H   0  0  0  0  0  0  0  0  0  0  0  0
   -0.5344    1.0876    0.2777 H   0  0  0  0  0  0  0  0  0  0  0  0
   -0.2816   -0.5793   -1.3656 H   0  0  0  0  0  0  0  0  0  0  0  0
   -0.4390   -1.7729   -0.1005 H   0  0  0  0  0  0  0  0  0  0  0  0
    1.9452   -1.3808   -0.5891 H   0  0  0  0  0  0  0  0  0  0  0  0
    1.7246    0.3146   -0.2429 H   0  0  0  0  0  0  0  0  0  0  0  0
    1.3457   -1.8946    1.8263 H   0  0  0  0  0  0  0  0  0  0  0  0
    0.9520   -0.0569    3.3610 H   0  0  0  0  0  0  0  0  0  0  0  0
    1.1250    1.0843    2.0569 H   0  0  0  0  0  0  0  0  0  0  0  0
   -1.0475   -1.0184    2.2402 H   0  0  0  0  0  0  0  0  0  0  0  0
   -1.2444    0.6943    2.4943 H   0  0  0  0  0  0  0  0  0  0  0  0
    2.9987    1.1320    2.3737 H   0  0  0  0  0  0  0  0  0  0  0  0
    4.4484    0.7271    1.4699 H   0  0  0  0  0  0  0  0  0  0  0  0
    4.2722    0.1975    3.1136 H   0  0  0  0  0  0  0  0  0  0  0  0
    5.6707   -3.0518    1.4337 H   0  0  0  0  0  0  0  0  0  0  0  0
    5.6118   -1.7239    2.5659 H   0  0  0  0  0  0  0  0  0  0  0  0
    8.5325    1.0992    0.2386 H   0  0  0  0  0  0  0  0  0  0  0  0
    7.5987    1.2768   -1.9964 H   0  0  0  0  0  0  0  0  0  0  0  0
    5.6883   -0.0933   -2.6190 H   0  0  0  0  0  0  0  0  0  0  0  0
    4.7121   -1.6168   -1.0053 H   0  0  0  0  0  0  0  0  0  0  0  0
  1  2  1  0
  2  3  2  0
  2  7  1  0
  7  6  2  0
  6  5  1  0
  5  4  2  0
  4  3  1  0
  8  9  2  0
  8 13  1  0
 13 12  2  0
 12 11  1  0
 11 10  2  0
 10  9  1  0
  1  8  1  0
  1 14  1  0
 14 15  1  0
 16 17  1  0
 16 21  1  0
 21 20  1  0
 20 19  1  0
 19 18  1  0
 18 17  1  0
 15 16  1  0
 19 22  1  0
 22 23  1  0
 29 24  1  0
 22 25  1  0
 25 26  2  0
 25 27  1  0
 29 28  2  0
 28 33  1  0
 33 32  2  0
 32 31  1  0
 31 30  2  0
 30 29  1  0
 27 28  1  0
  1 34  1  0
  3 35  1  0
  4 36  1  0
  5 37  1  0
  6 38  1  0
  7 39  1  0
  9 40  1  0
 10 41  1  0
 11 42  1  0
 12 43  1  0
 13 44  1  0
 14 45  1  0
 14 46  1  0
 15 47  1  0
 15 48  1  0
 16 49  1  6
 17 50  1  0
 17 51  1  0
 18 52  1  0
 18 53  1  0
 19 54  1  1
 20 55  1  0
 20 56  1  0
 21 57  1  0
 21 58  1  0
 23 59  1  0
 23 60  1  0
 23 61  1  0
 27 62  1  0
 27 63  1  0
 30 64  1  0
 31 65  1  0
 32 66  1  0
 33 67  1  0
M  CHG  1  16   1
M  END
>  <_TriposChargeType>  (35) 
GASTEIGER

>  <Activity>  (35) 
5.44

$$$$
CCR5_53
     RDKit          3D

 77 80  0  0  0  0  0  0  0  0999 V2000
   -4.0204    1.4073   -1.5100 C   0  0  0  0  0  0  0  0  0  0  0  0
   -4.3960    2.6551   -0.6807 C   0  0  0  0  0  0  0  0  0  0  0  0
   -5.7123    3.1243   -0.7824 C   0  0  0  0  0  0  0  0  0  0  0  0
   -6.1453    4.2280   -0.0424 C   0  0  0  0  0  0  0  0  0  0  0  0
   -5.2557    4.8896    0.8067 C   0  0  0  0  0  0  0  0  0  0  0  0
   -3.9348    4.4459    0.9013 C   0  0  0  0  0  0  0  0  0  0  0  0
   -3.5058    3.3428    0.1567 C   0  0  0  0  0  0  0  0  0  0  0  0
   -5.0321    0.2661   -1.2988 C   0  0  0  0  0  0  0  0  0  0  0  0
   -5.6591    0.0748   -0.0609 C   0  0  0  0  0  0  0  0  0  0  0  0
   -6.5816   -0.9606    0.1148 C   0  0  0  0  0  0  0  0  0  0  0  0
   -6.8833   -1.8173   -0.9468 C   0  0  0  0  0  0  0  0  0  0  0  0
   -6.2577   -1.6365   -2.1830 C   0  0  0  0  0  0  0  0  0  0  0  0
   -5.3351   -0.6006   -2.3556 C   0  0  0  0  0  0  0  0  0  0  0  0
   -2.5827    0.8397   -1.3216 C   0  0  0  0  0  0  0  0  0  0  0  0
   -2.3755    0.1407    0.0525 C   0  0  0  0  0  0  0  0  0  0  0  0
   -0.9436    0.0577    0.4464 N   0  0  2  0  0  4  0  0  0  0  0  0
   -0.0611   -0.6924   -0.4837 C   0  0  0  0  0  0  0  0  0  0  0  0
    1.4283   -0.4875   -0.1024 C   0  0  0  0  0  0  0  0  0  0  0  0
    1.6754   -0.9080    1.3660 C   0  0  2  0  0  0  0  0  0  0  0  0
    0.7097   -0.1277    2.2961 C   0  0  0  0  0  0  0  0  0  0  0  0
   -0.7582   -0.3622    1.8600 C   0  0  0  0  0  0  0  0  0  0  0  0
    3.0953   -0.7375    1.7288 N   0  0  0  0  0  0  0  0  0  0  0  0
    5.1465   -1.7959    2.3205 N   0  0  0  0  0  0  0  0  0  0  0  0
    6.0293   -2.9570    2.2278 C   0  0  0  0  0  0  0  0  0  0  0  0
    3.8834   -1.8486    1.8305 C   0  0  0  0  0  0  0  0  0  0  0  0
    3.4560   -2.9327    1.4700 O   0  0  0  0  0  0  0  0  0  0  0  0
    8.8756   -2.3410   -2.7077 O   0  0  0  0  0  0  0  0  0  0  0  0
    6.7793   -2.8001    0.8996 C   0  0  0  0  0  0  0  0  0  0  0  0
    7.8011   -1.8495    0.7938 C   0  0  0  0  0  0  0  0  0  0  0  0
    8.4926   -1.6871   -0.4100 C   0  0  0  0  0  0  0  0  0  0  0  0
    8.1741   -2.4856   -1.5110 C   0  0  0  0  0  0  0  0  0  0  0  0
    7.1497   -3.4302   -1.4127 C   0  0  0  0  0  0  0  0  0  0  0  0
    6.4506   -3.5848   -0.2117 C   0  0  0  0  0  0  0  0  0  0  0  0
   10.1425   -3.0178   -2.7211 C   0  0  0  0  0  0  0  0  0  0  0  0
    3.7031    0.5901    1.8848 C   0  0  0  0  0  0  0  0  0  0  0  0
    4.8444    0.7339    0.9050 C   0  0  0  0  0  0  0  0  0  0  0  0
    6.0384    1.2431    1.2330 C   0  0  0  0  0  0  0  0  0  0  0  0
   -4.0494    1.7826   -2.5116 H   0  0  0  0  0  0  0  0  0  0  0  0
   -6.3735    2.6467   -1.4146 H   0  0  0  0  0  0  0  0  0  0  0  0
   -7.1212    4.5536   -0.1234 H   0  0  0  0  0  0  0  0  0  0  0  0
   -5.5722    5.7009    1.3605 H   0  0  0  0  0  0  0  0  0  0  0  0
   -3.2722    4.9345    1.5237 H   0  0  0  0  0  0  0  0  0  0  0  0
   -2.5241    3.0316    0.2241 H   0  0  0  0  0  0  0  0  0  0  0  0
   -5.4383    0.7031    0.7274 H   0  0  0  0  0  0  0  0  0  0  0  0
   -7.0404   -1.0924    1.0298 H   0  0  0  0  0  0  0  0  0  0  0  0
   -7.5657   -2.5808   -0.8184 H   0  0  0  0  0  0  0  0  0  0  0  0
   -6.4769   -2.2681   -2.9691 H   0  0  0  0  0  0  0  0  0  0  0  0
   -4.8734   -0.4737   -3.2698 H   0  0  0  0  0  0  0  0  0  0  0  0
   -1.8678    1.6277   -1.4350 H   0  0  0  0  0  0  0  0  0  0  0  0
   -2.4428    0.0923   -2.0744 H   0  0  0  0  0  0  0  0  0  0  0  0
   -2.7990   -0.8415    0.0246 H   0  0  0  0  0  0  0  0  0  0  0  0
   -2.8705    0.7393    0.7884 H   0  0  0  0  0  0  0  0  0  0  0  0
   -0.6221    1.0224    0.3671 H   0  0  0  0  0  0  0  0  0  0  0  0
   -0.2303   -0.3710   -1.4902 H   0  0  0  0  0  0  0  0  0  0  0  0
   -0.2924   -1.7343   -0.4074 H   0  0  0  0  0  0  0  0  0  0  0  0
    2.0564   -1.0544   -0.7574 H   0  0  0  0  0  0  0  0  0  0  0  0
    1.6658    0.5509   -0.2036 H   0  0  0  0  0  0  0  0  0  0  0  0
    1.4645   -1.9500    1.4872 H   0  0  0  0  0  0  0  0  0  0  0  0
    0.8462   -0.4367    3.3114 H   0  0  0  0  0  0  0  0  0  0  0  0
    0.9285    0.9170    2.2210 H   0  0  0  0  0  0  0  0  0  0  0  0
   -1.0166   -1.3941    1.9750 H   0  0  0  0  0  0  0  0  0  0  0  0
   -1.4013    0.2247    2.4819 H   0  0  0  0  0  0  0  0  0  0  0  0
    5.4719   -0.9681    2.7425 H   0  0  0  0  0  0  0  0  0  0  0  0
    5.4673   -3.8674    2.2447 H   0  0  0  0  0  0  0  0  0  0  0  0
    6.7038   -3.0054    3.0570 H   0  0  0  0  0  0  0  0  0  0  0  0
    8.0452   -1.2654    1.6088 H   0  0  0  0  0  0  0  0  0  0  0  0
    9.2382   -0.9775   -0.4854 H   0  0  0  0  0  0  0  0  0  0  0  0
    6.9084   -4.0150   -2.2280 H   0  0  0  0  0  0  0  0  0  0  0  0
    5.6903   -4.2793   -0.1445 H   0  0  0  0  0  0  0  0  0  0  0  0
   10.6203   -2.8627   -3.6658 H   0  0  0  0  0  0  0  0  0  0  0  0
   10.0056   -4.0639   -2.5425 H   0  0  0  0  0  0  0  0  0  0  0  0
   10.7618   -2.6204   -1.9443 H   0  0  0  0  0  0  0  0  0  0  0  0
    2.9729    1.3545    1.7189 H   0  0  0  0  0  0  0  0  0  0  0  0
    4.0769    0.6938    2.8820 H   0  0  0  0  0  0  0  0  0  0  0  0
    4.6957    0.4234   -0.0679 H   0  0  0  0  0  0  0  0  0  0  0  0
    6.2159    1.5618    2.1984 H   0  0  0  0  0  0  0  0  0  0  0  0
    6.7813    1.3169    0.5205 H   0  0  0  0  0  0  0  0  0  0  0  0
  1  2  1  0
  2  3  2  0
  2  7  1  0
  7  6  2  0
  6  5  1  0
  5  4  2  0
  4  3  1  0
  8  9  2  0
  8 13  1  0
 13 12  2  0
 12 11  1  0
 11 10  2  0
 10  9  1  0
  1  8  1  0
  1 14  1  0
 14 15  1  0
 17 16  1  0
 21 16  1  0
 20 21  1  0
 19 20  1  0
 19 18  1  0
 18 17  1  0
 16 15  1  0
 22 19  1  0
 25 23  1  0
 23 24  1  0
 22 25  1  0
 25 26  2  0
 28 24  1  0
 28 29  2  0
 28 33  1  0
 33 32  2  0
 32 31  1  0
 31 30  2  0
 30 29  1  0
 31 27  1  0
 27 34  1  0
 35 36  1  0
 36 37  2  0
 22 35  1  0
  1 38  1  0
  3 39  1  0
  4 40  1  0
  5 41  1  0
  6 42  1  0
  7 43  1  0
  9 44  1  0
 10 45  1  0
 11 46  1  0
 12 47  1  0
 13 48  1  0
 14 49  1  0
 14 50  1  0
 15 51  1  0
 15 52  1  0
 16 53  1  1
 17 54  1  0
 17 55  1  0
 18 56  1  0
 18 57  1  0
 19 58  1  6
 20 59  1  0
 20 60  1  0
 21 61  1  0
 21 62  1  0
 23 63  1  0
 24 64  1  0
 24 65  1  0
 29 66  1  0
 30 67  1  0
 32 68  1  0
 33 69  1  0
 34 70  1  0
 34 71  1  0
 34 72  1  0
 35 73  1  0
 35 74  1  0
 36 75  1  0
 37 76  1  0
 37 77  1  0
M  CHG  1  16   1
M  END
>  <_TriposChargeType>  (36) 
GASTEIGER

>  <Activity>  (36) 
6.96

$$$$
CCR5_35
     RDKit          3D

 76 79  0  0  0  0  0  0  0  0999 V2000
   -4.0010    1.4181   -1.5025 C   0  0  0  0  0  0  0  0  0  0  0  0
   -4.4221    2.6774   -0.7137 C   0  0  0  0  0  0  0  0  0  0  0  0
   -5.7547    3.0951   -0.8273 C   0  0  0  0  0  0  0  0  0  0  0  0
   -6.2274    4.2030   -0.1186 C   0  0  0  0  0  0  0  0  0  0  0  0
   -5.3620    4.9220    0.7085 C   0  0  0  0  0  0  0  0  0  0  0  0
   -4.0249    4.5319    0.8114 C   0  0  0  0  0  0  0  0  0  0  0  0
   -3.5560    3.4246    0.0976 C   0  0  0  0  0  0  0  0  0  0  0  0
   -4.9901    0.2585   -1.2849 C   0  0  0  0  0  0  0  0  0  0  0  0
   -5.6221    0.0711   -0.0491 C   0  0  0  0  0  0  0  0  0  0  0  0
   -6.5222   -0.9824    0.1347 C   0  0  0  0  0  0  0  0  0  0  0  0
   -6.7959   -1.8612   -0.9165 C   0  0  0  0  0  0  0  0  0  0  0  0
   -6.1657   -1.6837   -2.1508 C   0  0  0  0  0  0  0  0  0  0  0  0
   -5.2660   -0.6292   -2.3318 C   0  0  0  0  0  0  0  0  0  0  0  0
   -2.5575    0.8832   -1.2692 C   0  0  0  0  0  0  0  0  0  0  0  0
   -2.3592    0.2400    0.1332 C   0  0  0  0  0  0  0  0  0  0  0  0
   -0.9278    0.1406    0.5264 N   0  0  2  0  0  4  0  0  0  0  0  0
   -0.0761   -0.6726   -0.3774 C   0  0  0  0  0  0  0  0  0  0  0  0
    1.4185   -0.5265    0.0032 C   0  0  0  0  0  0  0  0  0  0  0  0
    1.6596   -0.9245    1.4789 C   0  0  2  0  0  0  0  0  0  0  0  0
    0.7289   -0.0753    2.3847 C   0  0  0  0  0  0  0  0  0  0  0  0
   -0.7501   -0.2433    1.9509 C   0  0  0  0  0  0  0  0  0  0  0  0
    3.1102   -0.8281    1.7332 N   0  0  0  0  0  0  0  0  0  0  0  0
    3.7533    0.4259    2.1572 C   0  0  0  0  0  0  0  0  0  0  0  0
    3.8631    0.5295    3.7010 C   0  0  0  0  0  0  0  0  0  0  0  0
    3.8672   -1.9354    1.4698 C   0  0  0  0  0  0  0  0  0  0  0  0
    3.3537   -2.9789    1.0983 O   0  0  0  0  0  0  0  0  0  0  0  0
    5.3757   -1.9751    1.5765 C   0  0  0  0  0  0  0  0  0  0  0  0
    6.0434   -1.2211    0.4161 C   0  0  0  0  0  0  0  0  0  0  0  0
    7.2268   -0.5036    0.6274 C   0  0  0  0  0  0  0  0  0  0  0  0
    7.8004    0.2364   -0.4108 C   0  0  0  0  0  0  0  0  0  0  0  0
    7.1931    0.2690   -1.6689 C   0  0  0  0  0  0  0  0  0  0  0  0
    6.0348   -0.4787   -1.8948 C   0  0  0  0  0  0  0  0  0  0  0  0
    5.4732   -1.2348   -0.8623 C   0  0  0  0  0  0  0  0  0  0  0  0
    7.9034    1.2149   -2.9942 S   0  0  0  0  0  6  0  0  0  0  0  0
    6.8344    1.7611   -3.8067 O   0  0  0  0  0  0  0  0  0  0  0  0
    8.9214    2.1001   -2.4630 O   0  0  0  0  0  0  0  0  0  0  0  0
    8.7170   -0.0906   -3.9280 C   0  0  0  0  0  0  0  0  0  0  0  0
   -4.0161    1.7723   -2.5121 H   0  0  0  0  0  0  0  0  0  0  0  0
   -6.3981    2.5758   -1.4448 H   0  0  0  0  0  0  0  0  0  0  0  0
   -7.2150    4.4894   -0.2064 H   0  0  0  0  0  0  0  0  0  0  0  0
   -5.7081    5.7360    1.2401 H   0  0  0  0  0  0  0  0  0  0  0  0
   -3.3800    5.0633    1.4170 H   0  0  0  0  0  0  0  0  0  0  0  0
   -2.5625    3.1545    0.1686 H   0  0  0  0  0  0  0  0  0  0  0  0
   -5.4217    0.7156    0.7316 H   0  0  0  0  0  0  0  0  0  0  0  0
   -6.9852   -1.1113    1.0480 H   0  0  0  0  0  0  0  0  0  0  0  0
   -7.4611   -2.6386   -0.7817 H   0  0  0  0  0  0  0  0  0  0  0  0
   -6.3645   -2.3314   -2.9293 H   0  0  0  0  0  0  0  0  0  0  0  0
   -4.8013   -0.5040   -3.2447 H   0  0  0  0  0  0  0  0  0  0  0  0
   -1.8543    1.6787   -1.4017 H   0  0  0  0  0  0  0  0  0  0  0  0
   -2.3939    0.1097   -1.9902 H   0  0  0  0  0  0  0  0  0  0  0  0
   -2.8055   -0.7323    0.1497 H   0  0  0  0  0  0  0  0  0  0  0  0
   -2.8363    0.8822    0.8437 H   0  0  0  0  0  0  0  0  0  0  0  0
   -0.5813    1.0936    0.4162 H   0  0  0  0  0  0  0  0  0  0  0  0
   -0.2272   -0.3719   -1.3931 H   0  0  0  0  0  0  0  0  0  0  0  0
   -0.3542   -1.7004   -0.2720 H   0  0  0  0  0  0  0  0  0  0  0  0
    2.0207   -1.1319   -0.6416 H   0  0  0  0  0  0  0  0  0  0  0  0
    1.6941    0.5006   -0.1148 H   0  0  0  0  0  0  0  0  0  0  0  0
    1.3954   -1.9356    1.7087 H   0  0  0  0  0  0  0  0  0  0  0  0
    0.8470   -0.3656    3.4078 H   0  0  0  0  0  0  0  0  0  0  0  0
    0.9997    0.9547    2.2818 H   0  0  0  0  0  0  0  0  0  0  0  0
   -1.0630   -1.2557    2.0995 H   0  0  0  0  0  0  0  0  0  0  0  0
   -1.3543    0.4027    2.5529 H   0  0  0  0  0  0  0  0  0  0  0  0
    3.2050    1.2618    1.7757 H   0  0  0  0  0  0  0  0  0  0  0  0
    4.7471    0.4305    1.7607 H   0  0  0  0  0  0  0  0  0  0  0  0
    2.8828    0.5274    4.1297 H   0  0  0  0  0  0  0  0  0  0  0  0
    4.3858    1.4217    3.9762 H   0  0  0  0  0  0  0  0  0  0  0  0
    4.4110   -0.3114    4.0719 H   0  0  0  0  0  0  0  0  0  0  0  0
    5.7130   -2.9904    1.5930 H   0  0  0  0  0  0  0  0  0  0  0  0
    5.6541   -1.4891    2.4882 H   0  0  0  0  0  0  0  0  0  0  0  0
    7.6785   -0.5210    1.5551 H   0  0  0  0  0  0  0  0  0  0  0  0
    8.6746    0.7600   -0.2476 H   0  0  0  0  0  0  0  0  0  0  0  0
    5.5924   -0.4727   -2.8272 H   0  0  0  0  0  0  0  0  0  0  0  0
    4.6333   -1.8065   -1.0434 H   0  0  0  0  0  0  0  0  0  0  0  0
    9.2044    0.3316   -4.7819 H   0  0  0  0  0  0  0  0  0  0  0  0
    8.0034   -0.8264   -4.2349 H   0  0  0  0  0  0  0  0  0  0  0  0
    9.4464   -0.5658   -3.3059 H   0  0  0  0  0  0  0  0  0  0  0  0
  1  2  1  0
  2  3  2  0
  2  7  1  0
  7  6  2  0
  6  5  1  0
  5  4  2  0
  4  3  1  0
  8  9  2  0
  8 13  1  0
 13 12  2  0
 12 11  1  0
 11 10  2  0
 10  9  1  0
  1  8  1  0
  1 14  1  0
 14 15  1  0
 16 17  1  0
 16 21  1  0
 21 20  1  0
 20 19  1  0
 19 18  1  0
 18 17  1  0
 15 16  1  0
 19 22  1  0
 22 23  1  0
 23 24  1  0
 22 25  1  0
 25 26  2  0
 25 27  1  0
 28 29  2  0
 28 33  1  0
 33 32  2  0
 32 31  1  0
 31 30  2  0
 30 29  1  0
 27 28  1  0
 34 35  2  0
 34 36  2  0
 31 34  1  0
 34 37  1  0
  1 38  1  0
  3 39  1  0
  4 40  1  0
  5 41  1  0
  6 42  1  0
  7 43  1  0
  9 44  1  0
 10 45  1  0
 11 46  1  0
 12 47  1  0
 13 48  1  0
 14 49  1  0
 14 50  1  0
 15 51  1  0
 15 52  1  0
 16 53  1  1
 17 54  1  0
 17 55  1  0
 18 56  1  0
 18 57  1  0
 19 58  1  6
 20 59  1  0
 20 60  1  0
 21 61  1  0
 21 62  1  0
 23 63  1  0
 23 64  1  0
 24 65  1  0
 24 66  1  0
 24 67  1  0
 27 68  1  0
 27 69  1  0
 29 70  1  0
 30 71  1  0
 32 72  1  0
 33 73  1  0
 37 74  1  0
 37 75  1  0
 37 76  1  0
M  CHG  1  16   1
M  END
>  <_TriposChargeType>  (37) 
GASTEIGER

>  <Activity>  (37) 
7.12

$$$$
CCR5_71
     RDKit          3D

 84 87  0  0  0  0  0  0  0  0999 V2000
   -3.9928    1.3886   -1.5079 C   0  0  2  0  0  0  0  0  0  0  0  0
   -4.4033    2.6510   -0.7184 C   0  0  0  0  0  0  0  0  0  0  0  0
   -5.7335    3.0774   -0.8284 C   0  0  0  0  0  0  0  0  0  0  0  0
   -6.1991    4.1843   -0.1136 C   0  0  0  0  0  0  0  0  0  0  0  0
   -5.3279    4.8954    0.7141 C   0  0  0  0  0  0  0  0  0  0  0  0
   -3.9921    4.4991    0.8104 C   0  0  0  0  0  0  0  0  0  0  0  0
   -3.5306    3.3922    0.0913 C   0  0  0  0  0  0  0  0  0  0  0  0
   -5.0012    0.2468   -1.2860 C   0  0  0  0  0  0  0  0  0  0  0  0
   -5.6248    0.0661   -0.0460 C   0  0  0  0  0  0  0  0  0  0  0  0
   -6.5805   -0.9386    0.1270 C   0  0  0  0  0  0  0  0  0  0  0  0
   -6.9296   -1.7800   -0.9347 C   0  0  0  0  0  0  0  0  0  0  0  0
   -6.2634   -1.6387   -2.1575 C   0  0  0  0  0  0  0  0  0  0  0  0
   -5.3117   -0.6294   -2.3319 C   0  0  0  0  0  0  0  0  0  0  0  0
   -2.5531    0.8420   -1.2784 C   0  0  0  0  0  0  0  0  0  0  0  0
   -2.3525    0.2022    0.1249 C   0  0  0  0  0  0  0  0  0  0  0  0
   -0.9221    0.1096    0.5237 N   0  0  2  0  0  4  0  0  0  0  0  0
   -0.0484   -0.6692   -0.3895 C   0  0  0  0  0  0  0  0  0  0  0  0
    1.4405   -0.4980    0.0055 C   0  0  0  0  0  0  0  0  0  0  0  0
    1.6782   -0.9174    1.4759 C   0  0  2  0  0  0  0  0  0  0  0  0
    0.7211   -0.1083    2.3907 C   0  0  0  0  0  0  0  0  0  0  0  0
   -0.7498   -0.3006    1.9413 C   0  0  0  0  0  0  0  0  0  0  0  0
    3.1226   -0.7914    1.7526 N   0  0  0  0  0  0  0  0  0  0  0  0
    3.7302    0.4717    2.2011 C   0  0  0  0  0  0  0  0  0  0  0  0
    3.8128    0.5657    3.7474 C   0  0  0  0  0  0  0  0  0  0  0  0
    3.9085   -1.8787    1.4909 C   0  0  0  0  0  0  0  0  0  0  0  0
    3.4260   -2.9257    1.0890 O   0  0  0  0  0  0  0  0  0  0  0  0
    5.4140   -1.8920    1.6405 C   0  0  0  0  0  0  0  0  0  0  0  0
    6.0978   -1.1257    0.4983 C   0  0  0  0  0  0  0  0  0  0  0  0
    7.1987   -0.2998    0.7550 C   0  0  0  0  0  0  0  0  0  0  0  0
    7.7846    0.4378   -0.2778 C   0  0  0  0  0  0  0  0  0  0  0  0
    7.2773    0.3538   -1.5769 C   0  0  0  0  0  0  0  0  0  0  0  0
    6.2047   -0.5006   -1.8448 C   0  0  0  0  0  0  0  0  0  0  0  0
    5.6215   -1.2414   -0.8128 C   0  0  0  0  0  0  0  0  0  0  0  0
    8.0277    1.2850   -2.8901 S   0  0  0  0  0  6  0  0  0  0  0  0
    7.0610    1.4736   -3.9539 O   0  0  0  0  0  0  0  0  0  0  0  0
    8.7082    2.4362   -2.3300 O   0  0  0  0  0  0  0  0  0  0  0  0
   -7.9473   -2.7589   -0.7605 N   0  0  0  0  0  0  0  0  0  0  0  0
   -8.6591   -3.5319   -2.0156 S   0  0  0  0  0  6  0  0  0  0  0  0
   -7.8098   -4.6359   -2.4132 O   0  0  0  0  0  0  0  0  0  0  0  0
    9.2673    0.1070   -3.4491 C   0  0  0  0  0  0  0  0  0  0  0  0
   -9.0592   -2.5450   -2.9985 O   0  0  0  0  0  0  0  0  0  0  0  0
  -10.1590   -4.2112   -1.2819 C   0  0  0  0  0  0  0  0  0  0  0  0
   -3.9976    1.7359   -2.5200 H   0  0  0  0  0  0  0  0  0  0  0  0
   -6.3806    2.5652   -1.4480 H   0  0  0  0  0  0  0  0  0  0  0  0
   -7.1855    4.4758   -0.1974 H   0  0  0  0  0  0  0  0  0  0  0  0
   -5.6687    5.7082    1.2510 H   0  0  0  0  0  0  0  0  0  0  0  0
   -3.3425    5.0257    1.4152 H   0  0  0  0  0  0  0  0  0  0  0  0
   -2.5379    3.1180    0.1571 H   0  0  0  0  0  0  0  0  0  0  0  0
   -5.3770    0.6793    0.7462 H   0  0  0  0  0  0  0  0  0  0  0  0
   -7.0329   -1.0610    1.0464 H   0  0  0  0  0  0  0  0  0  0  0  0
   -6.4759   -2.2833   -2.9349 H   0  0  0  0  0  0  0  0  0  0  0  0
   -4.8335   -0.5296   -3.2410 H   0  0  0  0  0  0  0  0  0  0  0  0
   -1.8437    1.6309   -1.4175 H   0  0  0  0  0  0  0  0  0  0  0  0
   -2.4005    0.0638   -1.9968 H   0  0  0  0  0  0  0  0  0  0  0  0
   -2.7944   -0.7721    0.1423 H   0  0  0  0  0  0  0  0  0  0  0  0
   -2.8328    0.8451    0.8326 H   0  0  0  0  0  0  0  0  0  0  0  0
   -0.5883    1.0690    0.4316 H   0  0  0  0  0  0  0  0  0  0  0  0
   -0.1989   -0.3527   -1.4005 H   0  0  0  0  0  0  0  0  0  0  0  0
   -0.3058   -1.7044   -0.3063 H   0  0  0  0  0  0  0  0  0  0  0  0
    2.0604   -1.0789   -0.6451 H   0  0  0  0  0  0  0  0  0  0  0  0
    1.6954    0.5366   -0.0923 H   0  0  0  0  0  0  0  0  0  0  0  0
    1.4358   -1.9399    1.6776 H   0  0  0  0  0  0  0  0  0  0  0  0
    0.8376   -0.4168    3.4086 H   0  0  0  0  0  0  0  0  0  0  0  0
    0.9692    0.9295    2.3109 H   0  0  0  0  0  0  0  0  0  0  0  0
   -1.0408   -1.3228    2.0655 H   0  0  0  0  0  0  0  0  0  0  0  0
   -1.3745    0.3175    2.5516 H   0  0  0  0  0  0  0  0  0  0  0  0
    3.1706    1.2990    1.8174 H   0  0  0  0  0  0  0  0  0  0  0  0
    4.7308    0.4994    1.8231 H   0  0  0  0  0  0  0  0  0  0  0  0
    2.8259    0.5406    4.1600 H   0  0  0  0  0  0  0  0  0  0  0  0
    4.3129    1.4660    4.0376 H   0  0  0  0  0  0  0  0  0  0  0  0
    4.3715   -0.2669    4.1211 H   0  0  0  0  0  0  0  0  0  0  0  0
    5.7689   -2.9011    1.6662 H   0  0  0  0  0  0  0  0  0  0  0  0
    5.6592   -1.4028    2.5600 H   0  0  0  0  0  0  0  0  0  0  0  0
    7.5797   -0.2352    1.7119 H   0  0  0  0  0  0  0  0  0  0  0  0
    8.5944    1.0463   -0.0801 H   0  0  0  0  0  0  0  0  0  0  0  0
    5.8420   -0.5850   -2.8073 H   0  0  0  0  0  0  0  0  0  0  0  0
    4.8352   -1.8773   -1.0187 H   0  0  0  0  0  0  0  0  0  0  0  0
   -8.2358   -2.9809    0.1542 H   0  0  0  0  0  0  0  0  0  0  0  0
    9.8210    0.5296   -4.2613 H   0  0  0  0  0  0  0  0  0  0  0  0
    8.7998   -0.8057   -3.7547 H   0  0  0  0  0  0  0  0  0  0  0  0
    9.9361   -0.1093   -2.6423 H   0  0  0  0  0  0  0  0  0  0  0  0
  -10.7104   -4.7461   -2.0267 H   0  0  0  0  0  0  0  0  0  0  0  0
  -10.7582   -3.4263   -0.8699 H   0  0  0  0  0  0  0  0  0  0  0  0
   -9.8917   -4.8823   -0.4926 H   0  0  0  0  0  0  0  0  0  0  0  0
  1  2  1  0
  2  3  2  0
  2  7  1  0
  7  6  2  0
  6  5  1  0
  5  4  2  0
  4  3  1  0
  8  9  2  0
  8 13  1  0
 13 12  2  0
 12 11  1  0
 11 10  2  0
 10  9  1  0
  1  8  1  0
  1 14  1  0
 14 15  1  0
 16 17  1  0
 16 21  1  0
 21 20  1  0
 20 19  1  0
 19 18  1  0
 18 17  1  0
 15 16  1  0
 19 22  1  0
 22 23  1  0
 23 24  1  0
 22 25  1  0
 25 26  2  0
 25 27  1  0
 28 29  2  0
 28 33  1  0
 33 32  2  0
 32 31  1  0
 31 30  2  0
 30 29  1  0
 27 28  1  0
 34 35  2  0
 34 36  2  0
 31 34  1  0
 38 39  2  0
 38 41  2  0
 11 37  1  0
 34 40  1  0
 37 38  1  0
 38 42  1  0
  1 43  1  6
  3 44  1  0
  4 45  1  0
  5 46  1  0
  6 47  1  0
  7 48  1  0
  9 49  1  0
 10 50  1  0
 12 51  1  0
 13 52  1  0
 14 53  1  0
 14 54  1  0
 15 55  1  0
 15 56  1  0
 16 57  1  1
 17 58  1  0
 17 59  1  0
 18 60  1  0
 18 61  1  0
 19 62  1  6
 20 63  1  0
 20 64  1  0
 21 65  1  0
 21 66  1  0
 23 67  1  0
 23 68  1  0
 24 69  1  0
 24 70  1  0
 24 71  1  0
 27 72  1  0
 27 73  1  0
 29 74  1  0
 30 75  1  0
 32 76  1  0
 33 77  1  0
 37 78  1  0
 40 79  1  0
 40 80  1  0
 40 81  1  0
 42 82  1  0
 42 83  1  0
 42 84  1  0
M  CHG  1  16   1
M  END
>  <_TriposChargeType>  (38) 
GASTEIGER

>  <Activity>  (38) 
7.74

$$$$
CCR5_21
     RDKit          3D

 77 81  0  0  0  0  0  0  0  0999 V2000
   -3.9927    1.4311   -1.5006 C   0  0  0  0  0  0  0  0  0  0  0  0
   -4.4262    2.6781   -0.6988 C   0  0  0  0  0  0  0  0  0  0  0  0
   -5.7675    3.0732   -0.7901 C   0  0  0  0  0  0  0  0  0  0  0  0
   -6.2516    4.1611   -0.0584 C   0  0  0  0  0  0  0  0  0  0  0  0
   -5.3888    4.8849    0.7671 C   0  0  0  0  0  0  0  0  0  0  0  0
   -4.0421    4.5223    0.8422 C   0  0  0  0  0  0  0  0  0  0  0  0
   -3.5617    3.4360    0.1042 C   0  0  0  0  0  0  0  0  0  0  0  0
   -4.9768    0.2632   -1.3046 C   0  0  0  0  0  0  0  0  0  0  0  0
   -5.6057    0.0489   -0.0717 C   0  0  0  0  0  0  0  0  0  0  0  0
   -6.5019   -1.0111    0.0928 C   0  0  0  0  0  0  0  0  0  0  0  0
   -6.7741   -1.8700   -0.9751 C   0  0  0  0  0  0  0  0  0  0  0  0
   -6.1466   -1.6659   -2.2067 C   0  0  0  0  0  0  0  0  0  0  0  0
   -5.2512   -0.6047   -2.3684 C   0  0  0  0  0  0  0  0  0  0  0  0
   -2.5497    0.8969   -1.2617 C   0  0  0  0  0  0  0  0  0  0  0  0
   -2.3523    0.2658    0.1460 C   0  0  0  0  0  0  0  0  0  0  0  0
   -0.9124    0.1567    0.5048 N   0  0  2  0  0  4  0  0  0  0  0  0
   -0.1506   -0.8447   -0.2835 C   0  0  0  0  0  0  0  0  0  0  0  0
    1.3682   -0.7409    0.0054 C   0  0  0  0  0  0  0  0  0  0  0  0
    1.6547   -0.9061    1.5181 C   0  0  2  0  0  0  0  0  0  0  0  0
    0.8325    0.1622    2.2850 C   0  0  0  0  0  0  0  0  0  0  0  0
   -0.6765    0.0174    1.9645 C   0  0  0  0  0  0  0  0  0  0  0  0
    3.1107   -0.8409    1.7270 N   0  0  0  0  0  0  0  0  0  0  0  0
    3.7738    0.4152    2.1035 C   0  0  0  0  0  0  0  0  0  0  0  0
    7.8451    1.3851   -2.4415 C   0  0  0  0  0  0  0  0  0  0  0  0
    3.8293   -1.9722    1.4673 C   0  0  0  0  0  0  0  0  0  0  0  0
    3.2700   -3.0062    1.1381 O   0  0  0  0  0  0  0  0  0  0  0  0
    5.3364   -2.0516    1.5435 C   0  0  0  0  0  0  0  0  0  0  0  0
    6.0055   -1.1529    0.4929 C   0  0  0  0  0  0  0  0  0  0  0  0
    7.1761   -0.4498    0.8002 C   0  0  0  0  0  0  0  0  0  0  0  0
    7.7759    0.3767   -0.1545 C   0  0  0  0  0  0  0  0  0  0  0  0
    7.2085    0.5105   -1.4252 C   0  0  0  0  0  0  0  0  0  0  0  0
    6.0377   -0.1878   -1.7343 C   0  0  0  0  0  0  0  0  0  0  0  0
    5.4484   -1.0271   -0.7849 C   0  0  0  0  0  0  0  0  0  0  0  0
    8.1154    2.7255   -2.1477 C   0  0  0  0  0  0  0  0  0  0  0  0
    8.7199    3.5460   -3.1048 C   0  0  0  0  0  0  0  0  0  0  0  0
    9.0470    3.0300   -4.3622 C   0  0  0  0  0  0  0  0  0  0  0  0
    8.7732    1.6919   -4.6598 C   0  0  0  0  0  0  0  0  0  0  0  0
    8.1773    0.8701   -3.6987 C   0  0  0  0  0  0  0  0  0  0  0  0
   -4.0014    1.8005   -2.5048 H   0  0  0  0  0  0  0  0  0  0  0  0
   -6.4088    2.5520   -1.4082 H   0  0  0  0  0  0  0  0  0  0  0  0
   -7.2457    4.4292   -0.1281 H   0  0  0  0  0  0  0  0  0  0  0  0
   -5.7437    5.6822    1.3179 H   0  0  0  0  0  0  0  0  0  0  0  0
   -3.3986    5.0585    1.4451 H   0  0  0  0  0  0  0  0  0  0  0  0
   -2.5607    3.1895    0.1510 H   0  0  0  0  0  0  0  0  0  0  0  0
   -5.4059    0.6784    0.7213 H   0  0  0  0  0  0  0  0  0  0  0  0
   -6.9630   -1.1595    1.0040 H   0  0  0  0  0  0  0  0  0  0  0  0
   -7.4363   -2.6523   -0.8546 H   0  0  0  0  0  0  0  0  0  0  0  0
   -6.3443   -2.2989   -2.9974 H   0  0  0  0  0  0  0  0  0  0  0  0
   -4.7886   -0.4598   -3.2794 H   0  0  0  0  0  0  0  0  0  0  0  0
   -1.8458    1.6906   -1.4009 H   0  0  0  0  0  0  0  0  0  0  0  0
   -2.3867    0.1169   -1.9757 H   0  0  0  0  0  0  0  0  0  0  0  0
   -2.8091   -0.7013    0.1780 H   0  0  0  0  0  0  0  0  0  0  0  0
   -2.8192    0.9103    0.8612 H   0  0  0  0  0  0  0  0  0  0  0  0
   -0.5276    1.0607    0.2306 H   0  0  0  0  0  0  0  0  0  0  0  0
   -0.3346   -0.7045   -1.3282 H   0  0  0  0  0  0  0  0  0  0  0  0
   -0.4807   -1.8204    0.0062 H   0  0  0  0  0  0  0  0  0  0  0  0
    1.8985   -1.4852   -0.5511 H   0  0  0  0  0  0  0  0  0  0  0  0
    1.7026    0.2296   -0.2964 H   0  0  0  0  0  0  0  0  0  0  0  0
    1.3453   -1.8553    1.9030 H   0  0  0  0  0  0  0  0  0  0  0  0
    0.9955    0.0651    3.3381 H   0  0  0  0  0  0  0  0  0  0  0  0
    1.1564    1.1323    1.9707 H   0  0  0  0  0  0  0  0  0  0  0  0
   -1.0354   -0.9310    2.3059 H   0  0  0  0  0  0  0  0  0  0  0  0
   -1.2094    0.7941    2.4721 H   0  0  0  0  0  0  0  0  0  0  0  0
    3.0368    1.1745    2.2624 H   0  0  0  0  0  0  0  0  0  0  0  0
    4.4575    0.7171    1.3378 H   0  0  0  0  0  0  0  0  0  0  0  0
    4.3245    0.2647    3.0084 H   0  0  0  0  0  0  0  0  0  0  0  0
    5.6544   -3.0646    1.4112 H   0  0  0  0  0  0  0  0  0  0  0  0
    5.6344   -1.7033    2.5103 H   0  0  0  0  0  0  0  0  0  0  0  0
    7.5989   -0.5421    1.7371 H   0  0  0  0  0  0  0  0  0  0  0  0
    8.6403    0.8897    0.0795 H   0  0  0  0  0  0  0  0  0  0  0  0
    5.6072   -0.0833   -2.6664 H   0  0  0  0  0  0  0  0  0  0  0  0
    4.5970   -1.5575   -1.0275 H   0  0  0  0  0  0  0  0  0  0  0  0
    7.8681    3.1098   -1.2224 H   0  0  0  0  0  0  0  0  0  0  0  0
    8.9247    4.5329   -2.8830 H   0  0  0  0  0  0  0  0  0  0  0  0
    9.4902    3.6363   -5.0700 H   0  0  0  0  0  0  0  0  0  0  0  0
    9.0109    1.3108   -5.5889 H   0  0  0  0  0  0  0  0  0  0  0  0
    7.9820   -0.1194   -3.9174 H   0  0  0  0  0  0  0  0  0  0  0  0
  1  2  1  0
  2  3  2  0
  2  7  1  0
  7  6  2  0
  6  5  1  0
  5  4  2  0
  4  3  1  0
  8  9  2  0
  8 13  1  0
 13 12  2  0
 12 11  1  0
 11 10  2  0
 10  9  1  0
  1  8  1  0
  1 14  1  0
 14 15  1  0
 16 17  1  0
 16 21  1  0
 21 20  1  0
 20 19  1  0
 19 18  1  0
 18 17  1  0
 15 16  1  0
 19 22  1  0
 22 23  1  0
 24 34  2  0
 22 25  1  0
 25 26  2  0
 25 27  1  0
 28 29  2  0
 28 33  1  0
 33 32  2  0
 32 31  1  0
 31 30  2  0
 30 29  1  0
 27 28  1  0
 24 38  1  0
 38 37  2  0
 37 36  1  0
 36 35  2  0
 35 34  1  0
 31 24  1  0
  1 39  1  0
  3 40  1  0
  4 41  1  0
  5 42  1  0
  6 43  1  0
  7 44  1  0
  9 45  1  0
 10 46  1  0
 11 47  1  0
 12 48  1  0
 13 49  1  0
 14 50  1  0
 14 51  1  0
 15 52  1  0
 15 53  1  0
 16 54  1  6
 17 55  1  0
 17 56  1  0
 18 57  1  0
 18 58  1  0
 19 59  1  1
 20 60  1  0
 20 61  1  0
 21 62  1  0
 21 63  1  0
 23 64  1  0
 23 65  1  0
 23 66  1  0
 27 67  1  0
 27 68  1  0
 29 69  1  0
 30 70  1  0
 32 71  1  0
 33 72  1  0
 34 73  1  0
 35 74  1  0
 36 75  1  0
 37 76  1  0
 38 77  1  0
M  CHG  1  16   1
M  END
>  <_TriposChargeType>  (39) 
GASTEIGER

>  <Activity>  (39) 
5.64

$$$$
CCR5_03
     RDKit          3D

 70 73  0  0  0  0  0  0  0  0999 V2000
   -3.9935    1.4245   -1.5045 C   0  0  0  0  0  0  0  0  0  0  0  0
   -4.4234    2.6704   -0.6986 C   0  0  0  0  0  0  0  0  0  0  0  0
   -5.7655    3.0647   -0.7800 C   0  0  0  0  0  0  0  0  0  0  0  0
   -6.2459    4.1496   -0.0415 C   0  0  0  0  0  0  0  0  0  0  0  0
   -5.3782    4.8724    0.7799 C   0  0  0  0  0  0  0  0  0  0  0  0
   -4.0304    4.5118    0.8437 C   0  0  0  0  0  0  0  0  0  0  0  0
   -3.5541    3.4280    0.0996 C   0  0  0  0  0  0  0  0  0  0  0  0
   -4.9811    0.2590   -1.3113 C   0  0  0  0  0  0  0  0  0  0  0  0
   -5.6068    0.0405   -0.0775 C   0  0  0  0  0  0  0  0  0  0  0  0
   -6.5066   -1.0169    0.0843 C   0  0  0  0  0  0  0  0  0  0  0  0
   -6.7865   -1.8685   -0.9874 C   0  0  0  0  0  0  0  0  0  0  0  0
   -6.1623   -1.6602   -2.2200 C   0  0  0  0  0  0  0  0  0  0  0  0
   -5.2625   -0.6023   -2.3787 C   0  0  0  0  0  0  0  0  0  0  0  0
   -2.5519    0.8860   -1.2663 C   0  0  0  0  0  0  0  0  0  0  0  0
   -2.3548    0.2600    0.1435 C   0  0  0  0  0  0  0  0  0  0  0  0
   -0.9147    0.1608    0.5036 N   0  0  2  0  0  4  0  0  0  0  0  0
   -0.1481   -0.8495   -0.2683 C   0  0  0  0  0  0  0  0  0  0  0  0
    1.3713   -0.7416    0.0202 C   0  0  0  0  0  0  0  0  0  0  0  0
    1.6592   -0.8770    1.5366 C   0  0  2  0  0  0  0  0  0  0  0  0
    0.8343    0.2118    2.2717 C   0  0  0  0  0  0  0  0  0  0  0  0
   -0.6754    0.0497    1.9648 C   0  0  0  0  0  0  0  0  0  0  0  0
    3.1187   -0.8398    1.7430 N   0  0  0  0  0  0  0  0  0  0  0  0
    3.8279    0.3976    2.1006 C   0  0  0  0  0  0  0  0  0  0  0  0
    5.8564   -3.4612    1.0467 C   0  0  0  0  0  0  0  0  0  0  0  0
    3.8146   -1.9792    1.4521 C   0  0  0  0  0  0  0  0  0  0  0  0
    3.2266   -3.0015    1.1367 O   0  0  0  0  0  0  0  0  0  0  0  0
    5.3286   -2.0664    1.4793 C   0  0  2  0  0  0  0  0  0  0  0  0
    5.9466   -1.0186    0.5387 C   0  0  0  0  0  0  0  0  0  0  0  0
    7.0749   -0.2879    0.9293 C   0  0  0  0  0  0  0  0  0  0  0  0
    7.6129    0.6870    0.0841 C   0  0  0  0  0  0  0  0  0  0  0  0
    7.0312    0.9303   -1.1630 C   0  0  0  0  0  0  0  0  0  0  0  0
    5.9161    0.1909   -1.5660 C   0  0  0  0  0  0  0  0  0  0  0  0
    5.3817   -0.7854   -0.7206 C   0  0  0  0  0  0  0  0  0  0  0  0
   -4.0012    1.7960   -2.5079 H   0  0  0  0  0  0  0  0  0  0  0  0
   -6.4103    2.5451   -1.3958 H   0  0  0  0  0  0  0  0  0  0  0  0
   -7.2409    4.4163   -0.1031 H   0  0  0  0  0  0  0  0  0  0  0  0
   -5.7303    5.6674    1.3358 H   0  0  0  0  0  0  0  0  0  0  0  0
   -3.3831    5.0477    1.4427 H   0  0  0  0  0  0  0  0  0  0  0  0
   -2.5523    3.1830    0.1382 H   0  0  0  0  0  0  0  0  0  0  0  0
   -5.4020    0.6649    0.7182 H   0  0  0  0  0  0  0  0  0  0  0  0
   -6.9647   -1.1687    0.9965 H   0  0  0  0  0  0  0  0  0  0  0  0
   -7.4518   -2.6485   -0.8690 H   0  0  0  0  0  0  0  0  0  0  0  0
   -6.3657   -2.2877   -3.0137 H   0  0  0  0  0  0  0  0  0  0  0  0
   -4.8017   -0.4549   -3.2903 H   0  0  0  0  0  0  0  0  0  0  0  0
   -1.8453    1.6766   -1.4098 H   0  0  0  0  0  0  0  0  0  0  0  0
   -2.3927    0.1027   -1.9777 H   0  0  0  0  0  0  0  0  0  0  0  0
   -2.8059   -0.7097    0.1773 H   0  0  0  0  0  0  0  0  0  0  0  0
   -2.8276    0.9026    0.8566 H   0  0  0  0  0  0  0  0  0  0  0  0
   -0.5347    1.0617    0.2130 H   0  0  0  0  0  0  0  0  0  0  0  0
   -0.3307   -0.7248   -1.3152 H   0  0  0  0  0  0  0  0  0  0  0  0
   -0.4766   -1.8210    0.0370 H   0  0  0  0  0  0  0  0  0  0  0  0
    1.9011   -1.4970   -0.5216 H   0  0  0  0  0  0  0  0  0  0  0  0
    1.7057    0.2231   -0.2998 H   0  0  0  0  0  0  0  0  0  0  0  0
    1.3470   -1.8110    1.9550 H   0  0  0  0  0  0  0  0  0  0  0  0
    1.0032    0.1508    3.3265 H   0  0  0  0  0  0  0  0  0  0  0  0
    1.1512    1.1723    1.9227 H   0  0  0  0  0  0  0  0  0  0  0  0
   -1.0252   -0.8953    2.3247 H   0  0  0  0  0  0  0  0  0  0  0  0
   -1.2140    0.8288    2.4626 H   0  0  0  0  0  0  0  0  0  0  0  0
    3.1171    1.1741    2.2921 H   0  0  0  0  0  0  0  0  0  0  0  0
    4.4890    0.6872    1.3107 H   0  0  0  0  0  0  0  0  0  0  0  0
    4.4092    0.2275    2.9827 H   0  0  0  0  0  0  0  0  0  0  0  0
    5.4423   -4.2135    1.6850 H   0  0  0  0  0  0  0  0  0  0  0  0
    6.9252   -3.4835    1.0928 H   0  0  0  0  0  0  0  0  0  0  0  0
    5.5574   -3.6528    0.0373 H   0  0  0  0  0  0  0  0  0  0  0  0
    5.6152   -1.8882    2.4947 H   0  0  0  0  0  0  0  0  0  0  0  0
    7.5120   -0.4699    1.8463 H   0  0  0  0  0  0  0  0  0  0  0  0
    8.4403    1.2274    0.3814 H   0  0  0  0  0  0  0  0  0  0  0  0
    7.4242    1.6542   -1.7848 H   0  0  0  0  0  0  0  0  0  0  0  0
    5.4870    0.3658   -2.4881 H   0  0  0  0  0  0  0  0  0  0  0  0
    4.5655   -1.3378   -1.0267 H   0  0  0  0  0  0  0  0  0  0  0  0
  1  2  1  0
  2  3  2  0
  2  7  1  0
  7  6  2  0
  6  5  1  0
  5  4  2  0
  4  3  1  0
  8  9  2  0
  8 13  1  0
 13 12  2  0
 12 11  1  0
 11 10  2  0
 10  9  1  0
  1  8  1  0
  1 14  1  0
 14 15  1  0
 17 16  1  0
 21 16  1  0
 20 21  1  0
 19 20  1  0
 19 18  1  0
 18 17  1  0
 15 16  1  0
 22 19  1  0
 22 23  1  0
 27 24  1  0
 25 22  1  0
 25 26  2  0
 25 27  1  0
 28 29  2  0
 28 33  1  0
 33 32  2  0
 32 31  1  0
 31 30  2  0
 30 29  1  0
 27 28  1  0
  1 34  1  0
  3 35  1  0
  4 36  1  0
  5 37  1  0
  6 38  1  0
  7 39  1  0
  9 40  1  0
 10 41  1  0
 11 42  1  0
 12 43  1  0
 13 44  1  0
 14 45  1  0
 14 46  1  0
 15 47  1  0
 15 48  1  0
 16 49  1  6
 17 50  1  0
 17 51  1  0
 18 52  1  0
 18 53  1  0
 19 54  1  1
 20 55  1  0
 20 56  1  0
 21 57  1  0
 21 58  1  0
 23 59  1  0
 23 60  1  0
 23 61  1  0
 24 62  1  0
 24 63  1  0
 24 64  1  0
 27 65  1  1
 29 66  1  0
 30 67  1  0
 31 68  1  0
 32 69  1  0
 33 70  1  0
M  CHG  1  16   1
M  END
>  <_TriposChargeType>  (40) 
GASTEIGER

>  <Activity>  (40) 
5.17

$$$$
CCR5_08
     RDKit          3D

 67 70  0  0  0  0  0  0  0  0999 V2000
   -4.0001    1.4076   -1.5123 C   0  0  0  0  0  0  0  0  0  0  0  0
   -4.4168    2.6631   -0.7145 C   0  0  0  0  0  0  0  0  0  0  0  0
   -5.7542    3.0721   -0.8017 C   0  0  0  0  0  0  0  0  0  0  0  0
   -6.2236    4.1681   -0.0725 C   0  0  0  0  0  0  0  0  0  0  0  0
   -5.3496    4.8862    0.7462 C   0  0  0  0  0  0  0  0  0  0  0  0
   -4.0065    4.5097    0.8170 C   0  0  0  0  0  0  0  0  0  0  0  0
   -3.5410    3.4152    0.0818 C   0  0  0  0  0  0  0  0  0  0  0  0
   -4.9924    0.2493   -1.2999 C   0  0  0  0  0  0  0  0  0  0  0  0
   -5.6173    0.0515   -0.0621 C   0  0  0  0  0  0  0  0  0  0  0  0
   -6.5225   -0.9986    0.1160 C   0  0  0  0  0  0  0  0  0  0  0  0
   -6.8086   -1.8638   -0.9431 C   0  0  0  0  0  0  0  0  0  0  0  0
   -6.1846   -1.6768   -2.1792 C   0  0  0  0  0  0  0  0  0  0  0  0
   -5.2794   -0.6261   -2.3542 C   0  0  0  0  0  0  0  0  0  0  0  0
   -2.5584    0.8663   -1.2810 C   0  0  0  0  0  0  0  0  0  0  0  0
   -2.3557    0.2454    0.1303 C   0  0  0  0  0  0  0  0  0  0  0  0
   -0.9185    0.1660    0.5066 N   0  0  2  0  0  4  0  0  0  0  0  0
   -0.1046   -0.7624   -0.3182 C   0  0  0  0  0  0  0  0  0  0  0  0
    1.4040   -0.6405    0.0193 C   0  0  0  0  0  0  0  0  0  0  0  0
    1.6548   -0.8837    1.5287 C   0  0  2  0  0  0  0  0  0  0  0  0
    0.7882    0.1325    2.3176 C   0  0  0  0  0  0  0  0  0  0  0  0
   -0.7090   -0.0429    1.9619 C   0  0  0  0  0  0  0  0  0  0  0  0
    3.1069   -0.8457    1.7801 N   0  0  0  0  0  0  0  0  0  0  0  0
    3.7974    0.3580    2.2639 C   0  0  0  0  0  0  0  0  0  0  0  0
    8.8544    1.9005    1.1203 Cl  0  0  0  0  0  0  0  0  0  0  0  0
    3.8269   -1.9473    1.4169 C   0  0  0  0  0  0  0  0  0  0  0  0
    3.2752   -2.9528    0.9988 O   0  0  0  0  0  0  0  0  0  0  0  0
    5.3352   -2.0158    1.4868 C   0  0  0  0  0  0  0  0  0  0  0  0
    5.9801   -0.8957    0.6593 C   0  0  0  0  0  0  0  0  0  0  0  0
    7.0180   -0.1172    1.1846 C   0  0  0  0  0  0  0  0  0  0  0  0
    7.5707    0.9244    0.4343 C   0  0  0  0  0  0  0  0  0  0  0  0
    7.0989    1.1834   -0.8560 C   0  0  0  0  0  0  0  0  0  0  0  0
    6.0772    0.3957   -1.3925 C   0  0  0  0  0  0  0  0  0  0  0  0
    5.5228   -0.6426   -0.6387 C   0  0  0  0  0  0  0  0  0  0  0  0
    7.7805    2.4888   -1.8057 Cl  0  0  0  0  0  0  0  0  0  0  0  0
   -4.0148    1.7678   -2.5198 H   0  0  0  0  0  0  0  0  0  0  0  0
   -6.4037    2.5552   -1.4149 H   0  0  0  0  0  0  0  0  0  0  0  0
   -7.2151    4.4464   -0.1391 H   0  0  0  0  0  0  0  0  0  0  0  0
   -5.6937    5.6895    1.2951 H   0  0  0  0  0  0  0  0  0  0  0  0
   -3.3547    5.0417    1.4146 H   0  0  0  0  0  0  0  0  0  0  0  0
   -2.5425    3.1581    0.1256 H   0  0  0  0  0  0  0  0  0  0  0  0
   -5.4078    0.6859    0.7244 H   0  0  0  0  0  0  0  0  0  0  0  0
   -6.9801   -1.1350    1.0309 H   0  0  0  0  0  0  0  0  0  0  0  0
   -7.4783   -2.6381   -0.8129 H   0  0  0  0  0  0  0  0  0  0  0  0
   -6.3921   -2.3147   -2.9634 H   0  0  0  0  0  0  0  0  0  0  0  0
   -4.8188   -0.4945   -3.2683 H   0  0  0  0  0  0  0  0  0  0  0  0
   -1.8506    1.6545   -1.4314 H   0  0  0  0  0  0  0  0  0  0  0  0
   -2.4047    0.0803   -1.9906 H   0  0  0  0  0  0  0  0  0  0  0  0
   -2.7932   -0.7305    0.1630 H   0  0  0  0  0  0  0  0  0  0  0  0
   -2.8392    0.8868    0.8372 H   0  0  0  0  0  0  0  0  0  0  0  0
   -0.5581    1.0937    0.2833 H   0  0  0  0  0  0  0  0  0  0  0  0
   -0.2634   -0.5621   -1.3572 H   0  0  0  0  0  0  0  0  0  0  0  0
   -0.4146   -1.7622   -0.0962 H   0  0  0  0  0  0  0  0  0  0  0  0
    1.9669   -1.3400   -0.5626 H   0  0  0  0  0  0  0  0  0  0  0  0
    1.7222    0.3531   -0.2184 H   0  0  0  0  0  0  0  0  0  0  0  0
    1.3495   -1.8510    1.8694 H   0  0  0  0  0  0  0  0  0  0  0  0
    0.9339    0.0012    3.3695 H   0  0  0  0  0  0  0  0  0  0  0  0
    1.0901    1.1223    2.0457 H   0  0  0  0  0  0  0  0  0  0  0  0
   -1.0430   -1.0190    2.2456 H   0  0  0  0  0  0  0  0  0  0  0  0
   -1.2780    0.6866    2.4995 H   0  0  0  0  0  0  0  0  0  0  0  0
    3.0766    1.1129    2.4994 H   0  0  0  0  0  0  0  0  0  0  0  0
    4.4805    0.7165    1.5224 H   0  0  0  0  0  0  0  0  0  0  0  0
    4.3526    0.1146    3.1456 H   0  0  0  0  0  0  0  0  0  0  0  0
    5.6741   -2.9689    1.1381 H   0  0  0  0  0  0  0  0  0  0  0  0
    5.6276   -1.8863    2.5079 H   0  0  0  0  0  0  0  0  0  0  0  0
    7.3774   -0.3136    2.1319 H   0  0  0  0  0  0  0  0  0  0  0  0
    5.7313    0.5808   -2.3470 H   0  0  0  0  0  0  0  0  0  0  0  0
    4.7724   -1.2255   -1.0415 H   0  0  0  0  0  0  0  0  0  0  0  0
  1  2  1  0
  2  3  2  0
  2  7  1  0
  7  6  2  0
  6  5  1  0
  5  4  2  0
  4  3  1  0
  8  9  2  0
  8 13  1  0
 13 12  2  0
 12 11  1  0
 11 10  2  0
 10  9  1  0
  1  8  1  0
  1 14  1  0
 14 15  1  0
 16 17  1  0
 16 21  1  0
 21 20  1  0
 20 19  1  0
 19 18  1  0
 18 17  1  0
 15 16  1  0
 19 22  1  0
 22 23  1  0
 30 24  1  0
 22 25  1  0
 25 26  2  0
 25 27  1  0
 28 29  2  0
 33 28  1  0
 32 33  2  0
 31 32  1  0
 31 30  2  0
 30 29  1  0
 27 28  1  0
 31 34  1  0
  1 35  1  0
  3 36  1  0
  4 37  1  0
  5 38  1  0
  6 39  1  0
  7 40  1  0
  9 41  1  0
 10 42  1  0
 11 43  1  0
 12 44  1  0
 13 45  1  0
 14 46  1  0
 14 47  1  0
 15 48  1  0
 15 49  1  0
 16 50  1  6
 17 51  1  0
 17 52  1  0
 18 53  1  0
 18 54  1  0
 19 55  1  1
 20 56  1  0
 20 57  1  0
 21 58  1  0
 21 59  1  0
 23 60  1  0
 23 61  1  0
 23 62  1  0
 27 63  1  0
 27 64  1  0
 29 65  1  0
 32 66  1  0
 33 67  1  0
M  CHG  1  16   1
M  END
>  <_TriposChargeType>  (41) 
GASTEIGER

>  <Activity>  (41) 
6.11

$$$$
CCR5_40
     RDKit          3D

 75 78  0  0  0  0  0  0  0  0999 V2000
   -4.0160    1.4350   -1.5057 C   0  0  0  0  0  0  0  0  0  0  0  0
   -4.4377    2.6799   -0.6945 C   0  0  0  0  0  0  0  0  0  0  0  0
   -5.7758    3.0863   -0.7827 C   0  0  0  0  0  0  0  0  0  0  0  0
   -6.2491    4.1781   -0.0499 C   0  0  0  0  0  0  0  0  0  0  0  0
   -5.3789    4.8930    0.7757 C   0  0  0  0  0  0  0  0  0  0  0  0
   -4.0363    4.5157    0.8519 C   0  0  0  0  0  0  0  0  0  0  0  0
   -3.5668    3.4249    0.1137 C   0  0  0  0  0  0  0  0  0  0  0  0
   -4.9965    0.2665   -1.2955 C   0  0  0  0  0  0  0  0  0  0  0  0
   -5.6129    0.0556   -0.0556 C   0  0  0  0  0  0  0  0  0  0  0  0
   -6.5088   -1.0028    0.1205 C   0  0  0  0  0  0  0  0  0  0  0  0
   -6.7930   -1.8639   -0.9425 C   0  0  0  0  0  0  0  0  0  0  0  0
   -6.1765   -1.6645   -2.1804 C   0  0  0  0  0  0  0  0  0  0  0  0
   -5.2810   -0.6052   -2.3535 C   0  0  0  0  0  0  0  0  0  0  0  0
   -2.5666    0.9066   -1.2942 C   0  0  0  0  0  0  0  0  0  0  0  0
   -2.3475    0.2533    0.1002 C   0  0  0  0  0  0  0  0  0  0  0  0
   -0.9105    0.1627    0.4760 N   0  0  2  0  0  4  0  0  0  0  0  0
   -0.0678   -0.6501   -0.4382 C   0  0  0  0  0  0  0  0  0  0  0  0
    1.4331   -0.5133   -0.0750 C   0  0  0  0  0  0  0  0  0  0  0  0
    1.6743   -0.9087    1.4002 C   0  0  2  0  0  0  0  0  0  0  0  0
    0.7690   -0.0404    2.3131 C   0  0  0  0  0  0  0  0  0  0  0  0
   -0.7165   -0.2069    1.9029 C   0  0  0  0  0  0  0  0  0  0  0  0
    3.1178   -0.8334    1.6958 N   0  0  0  0  0  0  0  0  0  0  0  0
    3.7995    0.4443    1.9424 C   0  0  0  0  0  0  0  0  0  0  0  0
    4.0623    0.6139    3.4179 C   0  0  0  0  0  0  0  0  0  0  0  0
    3.8371   -1.9944    1.6915 C   0  0  0  0  0  0  0  0  0  0  0  0
    3.3180   -3.0678    1.4300 O   0  0  0  0  0  0  0  0  0  0  0  0
    5.3175   -2.0547    1.9956 C   0  0  0  0  0  0  0  0  0  0  0  0
    6.1876   -1.4612    0.8786 C   0  0  0  0  0  0  0  0  0  0  0  0
    5.7966   -1.5689   -0.4613 C   0  0  0  0  0  0  0  0  0  0  0  0
    6.5630   -0.9765   -1.4692 C   0  0  0  0  0  0  0  0  0  0  0  0
    7.7341   -0.2879   -1.1446 C   0  0  0  0  0  0  0  0  0  0  0  0
    8.1497   -0.2114    0.1868 C   0  0  0  0  0  0  0  0  0  0  0  0
    7.3797   -0.7987    1.1947 C   0  0  0  0  0  0  0  0  0  0  0  0
    5.2472    0.9962    3.9106 C   0  0  0  0  0  0  0  0  0  0  0  0
    8.4857    0.3197   -2.1466 O   0  0  0  0  0  0  0  0  0  0  0  0
    8.1204    1.6925   -2.3376 C   0  0  0  0  0  0  0  0  0  0  0  0
    8.8879    2.2107   -3.3327 F   0  0  0  0  0  0  0  0  0  0  0  0
    6.8092    1.7843   -2.6907 F   0  0  0  0  0  0  0  0  0  0  0  0
    8.3319    2.4021   -1.1958 F   0  0  0  0  0  0  0  0  0  0  0  0
   -4.0425    1.8030   -2.5101 H   0  0  0  0  0  0  0  0  0  0  0  0
   -6.4229    2.5705   -1.3994 H   0  0  0  0  0  0  0  0  0  0  0  0
   -7.2407    4.4557   -0.1188 H   0  0  0  0  0  0  0  0  0  0  0  0
   -5.7254    5.6945    1.3257 H   0  0  0  0  0  0  0  0  0  0  0  0
   -3.3877    5.0445    1.4559 H   0  0  0  0  0  0  0  0  0  0  0  0
   -2.5692    3.1654    0.1641 H   0  0  0  0  0  0  0  0  0  0  0  0
   -5.4040    0.6864    0.7340 H   0  0  0  0  0  0  0  0  0  0  0  0
   -6.9609   -1.1484    1.0367 H   0  0  0  0  0  0  0  0  0  0  0  0
   -7.4558   -2.6443   -0.8138 H   0  0  0  0  0  0  0  0  0  0  0  0
   -6.3824   -2.2996   -2.9673 H   0  0  0  0  0  0  0  0  0  0  0  0
   -4.8257   -0.4645   -3.2689 H   0  0  0  0  0  0  0  0  0  0  0  0
   -1.8697    1.7073   -1.4287 H   0  0  0  0  0  0  0  0  0  0  0  0
   -2.4074    0.1399   -2.0234 H   0  0  0  0  0  0  0  0  0  0  0  0
   -2.7855   -0.7229    0.1134 H   0  0  0  0  0  0  0  0  0  0  0  0
   -2.8221    0.8851    0.8216 H   0  0  0  0  0  0  0  0  0  0  0  0
   -0.5636    1.1145    0.3571 H   0  0  0  0  0  0  0  0  0  0  0  0
   -0.2285   -0.3461   -1.4514 H   0  0  0  0  0  0  0  0  0  0  0  0
   -0.3478   -1.6771   -0.3296 H   0  0  0  0  0  0  0  0  0  0  0  0
    2.0245   -1.1278   -0.7211 H   0  0  0  0  0  0  0  0  0  0  0  0
    1.7219    0.5089   -0.2041 H   0  0  0  0  0  0  0  0  0  0  0  0
    1.3946   -1.9232    1.5937 H   0  0  0  0  0  0  0  0  0  0  0  0
    0.9021   -0.3198    3.3374 H   0  0  0  0  0  0  0  0  0  0  0  0
    1.0461    0.9867    2.1978 H   0  0  0  0  0  0  0  0  0  0  0  0
   -1.0314   -1.2163    2.0666 H   0  0  0  0  0  0  0  0  0  0  0  0
   -1.3105    0.4471    2.5065 H   0  0  0  0  0  0  0  0  0  0  0  0
    4.7194    0.4827    1.3972 H   0  0  0  0  0  0  0  0  0  0  0  0
    3.1691    1.2423    1.6096 H   0  0  0  0  0  0  0  0  0  0  0  0
    3.2924    0.4264    4.0791 H   0  0  0  0  0  0  0  0  0  0  0  0
    5.6063   -3.0692    2.1752 H   0  0  0  0  0  0  0  0  0  0  0  0
    5.4804   -1.4566    2.8677 H   0  0  0  0  0  0  0  0  0  0  0  0
    4.9388   -2.0879   -0.7060 H   0  0  0  0  0  0  0  0  0  0  0  0
    6.2632   -1.0480   -2.4541 H   0  0  0  0  0  0  0  0  0  0  0  0
    9.0256    0.2789    0.4264 H   0  0  0  0  0  0  0  0  0  0  0  0
    7.6915   -0.7437    2.1769 H   0  0  0  0  0  0  0  0  0  0  0  0
    6.0337    1.1900    3.2711 H   0  0  0  0  0  0  0  0  0  0  0  0
    5.3739    1.0971    4.9298 H   0  0  0  0  0  0  0  0  0  0  0  0
  1  2  1  0
  2  3  2  0
  2  7  1  0
  7  6  2  0
  6  5  1  0
  5  4  2  0
  4  3  1  0
  8  9  2  0
  8 13  1  0
 13 12  2  0
 12 11  1  0
 11 10  2  0
 10  9  1  0
  1  8  1  0
  1 14  1  0
 14 15  1  0
 16 17  1  0
 16 21  1  0
 21 20  1  0
 20 19  1  0
 19 18  1  0
 18 17  1  0
 15 16  1  0
 19 22  1  0
 23 24  1  0
 24 34  2  0
 22 25  1  0
 25 26  2  0
 25 27  1  0
 28 29  2  0
 28 33  1  0
 33 32  2  0
 32 31  1  0
 31 30  2  0
 30 29  1  0
 27 28  1  0
 22 23  1  0
 31 35  1  0
 35 36  1  0
 36 37  1  0
 36 38  1  0
 36 39  1  0
  1 40  1  0
  3 41  1  0
  4 42  1  0
  5 43  1  0
  6 44  1  0
  7 45  1  0
  9 46  1  0
 10 47  1  0
 11 48  1  0
 12 49  1  0
 13 50  1  0
 14 51  1  0
 14 52  1  0
 15 53  1  0
 15 54  1  0
 16 55  1  1
 17 56  1  0
 17 57  1  0
 18 58  1  0
 18 59  1  0
 19 60  1  6
 20 61  1  0
 20 62  1  0
 21 63  1  0
 21 64  1  0
 23 65  1  0
 23 66  1  0
 24 67  1  0
 27 68  1  0
 27 69  1  0
 29 70  1  0
 30 71  1  0
 32 72  1  0
 33 73  1  0
 34 74  1  0
 34 75  1  0
M  CHG  1  16   1
M  END
>  <_TriposChargeType>  (42) 
GASTEIGER

>  <Activity>  (42) 
6.46

$$$$
CCR5_67
     RDKit          3D

 82 85  0  0  0  0  0  0  0  0999 V2000
   -4.0008    1.4110   -1.5074 C   0  0  2  0  0  0  0  0  0  0  0  0
   -4.4146    2.6734   -0.7196 C   0  0  0  0  0  0  0  0  0  0  0  0
   -5.7402    3.1084   -0.8497 C   0  0  0  0  0  0  0  0  0  0  0  0
   -6.2086    4.2195   -0.1430 C   0  0  0  0  0  0  0  0  0  0  0  0
   -5.3456    4.9240    0.6989 C   0  0  0  0  0  0  0  0  0  0  0  0
   -4.0151    4.5164    0.8185 C   0  0  0  0  0  0  0  0  0  0  0  0
   -3.5504    3.4059    0.1071 C   0  0  0  0  0  0  0  0  0  0  0  0
   -4.9948    0.2577   -1.2779 C   0  0  0  0  0  0  0  0  0  0  0  0
   -5.6330    0.0891   -0.0427 C   0  0  0  0  0  0  0  0  0  0  0  0
   -6.5424   -0.9548    0.1485 C   0  0  0  0  0  0  0  0  0  0  0  0
   -6.8236   -1.8422   -0.8931 C   0  0  0  0  0  0  0  0  0  0  0  0
   -6.1769   -1.6896   -2.1220 C   0  0  0  0  0  0  0  0  0  0  0  0
   -5.2694   -0.6437   -2.3132 C   0  0  0  0  0  0  0  0  0  0  0  0
   -2.5573    0.8737   -1.2798 C   0  0  0  0  0  0  0  0  0  0  0  0
   -2.3613    0.2145    0.1155 C   0  0  0  0  0  0  0  0  0  0  0  0
   -0.9326    0.1190    0.5187 N   0  0  2  0  0  4  0  0  0  0  0  0
   -0.0563   -0.6493   -0.4012 C   0  0  0  0  0  0  0  0  0  0  0  0
    1.4311   -0.4896    0.0030 C   0  0  0  0  0  0  0  0  0  0  0  0
    1.6603   -0.9310    1.4682 C   0  0  2  0  0  0  0  0  0  0  0  0
    0.7030   -0.1298    2.3896 C   0  0  0  0  0  0  0  0  0  0  0  0
   -0.7668   -0.3098    1.9318 C   0  0  0  0  0  0  0  0  0  0  0  0
    3.1044   -0.8163    1.7508 N   0  0  0  0  0  0  0  0  0  0  0  0
    3.7164    0.4362    2.2228 C   0  0  0  0  0  0  0  0  0  0  0  0
    3.7954    0.5024    3.7705 C   0  0  0  0  0  0  0  0  0  0  0  0
    3.8859   -1.9023    1.4715 C   0  0  0  0  0  0  0  0  0  0  0  0
    3.3994   -2.9400    1.0510 O   0  0  0  0  0  0  0  0  0  0  0  0
    5.3912   -1.9245    1.6226 C   0  0  0  0  0  0  0  0  0  0  0  0
    6.0790   -1.1389    0.4959 C   0  0  0  0  0  0  0  0  0  0  0  0
    7.1864   -0.3270    0.7689 C   0  0  0  0  0  0  0  0  0  0  0  0
    7.7756    0.4297   -0.2480 C   0  0  0  0  0  0  0  0  0  0  0  0
    7.2649    0.3790   -1.5476 C   0  0  0  0  0  0  0  0  0  0  0  0
    6.1863   -0.4621   -1.8328 C   0  0  0  0  0  0  0  0  0  0  0  0
    5.6002   -1.2224   -0.8168 C   0  0  0  0  0  0  0  0  0  0  0  0
    8.0181    1.3357   -2.8409 S   0  0  0  0  0  6  0  0  0  0  0  0
    7.0480    1.5602   -3.8946 O   0  0  0  0  0  0  0  0  0  0  0  0
    8.7126    2.4658   -2.2556 O   0  0  0  0  0  0  0  0  0  0  0  0
   -7.9538   -3.1877   -0.6344 S   0  0  0  0  0  6  0  0  0  0  0  0
   -8.8984   -2.8229    0.4032 O   0  0  0  0  0  0  0  0  0  0  0  0
   -8.4438   -3.6545   -1.9165 O   0  0  0  0  0  0  0  0  0  0  0  0
    9.2433    0.1600   -3.4355 C   0  0  0  0  0  0  0  0  0  0  0  0
   -6.8279   -4.4239    0.0298 C   0  0  0  0  0  0  0  0  0  0  0  0
   -4.0179    1.7587   -2.5192 H   0  0  0  0  0  0  0  0  0  0  0  0
   -6.3816    2.5997   -1.4781 H   0  0  0  0  0  0  0  0  0  0  0  0
   -7.1911    4.5189   -0.2433 H   0  0  0  0  0  0  0  0  0  0  0  0
   -5.6886    5.7403    1.2291 H   0  0  0  0  0  0  0  0  0  0  0  0
   -3.3719    5.0373    1.4349 H   0  0  0  0  0  0  0  0  0  0  0  0
   -2.5616    3.1225    0.1912 H   0  0  0  0  0  0  0  0  0  0  0  0
   -5.4303    0.7403    0.7318 H   0  0  0  0  0  0  0  0  0  0  0  0
   -7.0078   -1.0705    1.0623 H   0  0  0  0  0  0  0  0  0  0  0  0
   -6.3697   -2.3507   -2.8906 H   0  0  0  0  0  0  0  0  0  0  0  0
   -4.7981   -0.5352   -3.2249 H   0  0  0  0  0  0  0  0  0  0  0  0
   -1.8541    1.6708   -1.4022 H   0  0  0  0  0  0  0  0  0  0  0  0
   -2.3922    0.1092   -2.0100 H   0  0  0  0  0  0  0  0  0  0  0  0
   -2.8014   -0.7608    0.1174 H   0  0  0  0  0  0  0  0  0  0  0  0
   -2.8458    0.8465    0.8302 H   0  0  0  0  0  0  0  0  0  0  0  0
   -0.5978    1.0793    0.4406 H   0  0  0  0  0  0  0  0  0  0  0  0
   -0.2007   -0.3177   -1.4082 H   0  0  0  0  0  0  0  0  0  0  0  0
   -0.3175   -1.6847   -0.3336 H   0  0  0  0  0  0  0  0  0  0  0  0
    2.0518   -1.0635   -0.6530 H   0  0  0  0  0  0  0  0  0  0  0  0
    1.6904    0.5453   -0.0787 H   0  0  0  0  0  0  0  0  0  0  0  0
    1.4120   -1.9547    1.6563 H   0  0  0  0  0  0  0  0  0  0  0  0
    0.8140   -0.4520    3.4039 H   0  0  0  0  0  0  0  0  0  0  0  0
    0.9559    0.9078    2.3244 H   0  0  0  0  0  0  0  0  0  0  0  0
   -1.0627   -1.3322    2.0420 H   0  0  0  0  0  0  0  0  0  0  0  0
   -1.3909    0.3038    2.5474 H   0  0  0  0  0  0  0  0  0  0  0  0
    3.1613    1.2726    1.8524 H   0  0  0  0  0  0  0  0  0  0  0  0
    4.7180    0.4664    1.8477 H   0  0  0  0  0  0  0  0  0  0  0  0
    2.8073    0.4742    4.1801 H   0  0  0  0  0  0  0  0  0  0  0  0
    4.2985    1.3953    4.0779 H   0  0  0  0  0  0  0  0  0  0  0  0
    4.3496   -0.3390    4.1307 H   0  0  0  0  0  0  0  0  0  0  0  0
    5.7421   -2.9353    1.6291 H   0  0  0  0  0  0  0  0  0  0  0  0
    5.6374   -1.4544    2.5517 H   0  0  0  0  0  0  0  0  0  0  0  0
    7.5698   -0.2870    1.7262 H   0  0  0  0  0  0  0  0  0  0  0  0
    8.5902    1.0276   -0.0383 H   0  0  0  0  0  0  0  0  0  0  0  0
    5.8213   -0.5222   -2.7962 H   0  0  0  0  0  0  0  0  0  0  0  0
    4.8099   -1.8489   -1.0357 H   0  0  0  0  0  0  0  0  0  0  0  0
    9.7973    0.5974   -4.2397 H   0  0  0  0  0  0  0  0  0  0  0  0
    8.7653   -0.7401   -3.7615 H   0  0  0  0  0  0  0  0  0  0  0  0
    9.9138   -0.0830   -2.6378 H   0  0  0  0  0  0  0  0  0  0  0  0
   -7.3693   -5.3216    0.2443 H   0  0  0  0  0  0  0  0  0  0  0  0
   -6.3548   -4.0559    0.9161 H   0  0  0  0  0  0  0  0  0  0  0  0
   -6.0699   -4.6350   -0.6953 H   0  0  0  0  0  0  0  0  0  0  0  0
  1  2  1  0
  2  3  2  0
  2  7  1  0
  7  6  2  0
  6  5  1  0
  5  4  2  0
  4  3  1  0
  8  9  2  0
  8 13  1  0
 13 12  2  0
 12 11  1  0
 11 10  2  0
 10  9  1  0
  1  8  1  0
  1 14  1  0
 14 15  1  0
 16 17  1  0
 16 21  1  0
 21 20  1  0
 20 19  1  0
 19 18  1  0
 18 17  1  0
 15 16  1  0
 19 22  1  0
 22 23  1  0
 23 24  1  0
 22 25  1  0
 25 26  2  0
 25 27  1  0
 28 29  2  0
 28 33  1  0
 33 32  2  0
 32 31  1  0
 31 30  2  0
 30 29  1  0
 27 28  1  0
 34 35  2  0
 34 36  2  0
 31 34  1  0
 37 38  2  0
 37 39  2  0
 11 37  1  0
 34 40  1  0
 37 41  1  0
  1 42  1  6
  3 43  1  0
  4 44  1  0
  5 45  1  0
  6 46  1  0
  7 47  1  0
  9 48  1  0
 10 49  1  0
 12 50  1  0
 13 51  1  0
 14 52  1  0
 14 53  1  0
 15 54  1  0
 15 55  1  0
 16 56  1  1
 17 57  1  0
 17 58  1  0
 18 59  1  0
 18 60  1  0
 19 61  1  6
 20 62  1  0
 20 63  1  0
 21 64  1  0
 21 65  1  0
 23 66  1  0
 23 67  1  0
 24 68  1  0
 24 69  1  0
 24 70  1  0
 27 71  1  0
 27 72  1  0
 29 73  1  0
 30 74  1  0
 32 75  1  0
 33 76  1  0
 40 77  1  0
 40 78  1  0
 40 79  1  0
 41 80  1  0
 41 81  1  0
 41 82  1  0
M  CHG  1  16   1
M  END
>  <_TriposChargeType>  (43) 
GASTEIGER

>  <Activity>  (43) 
8.77

$$$$
CCR5_36
     RDKit          3D

 72 75  0  0  0  0  0  0  0  0999 V2000
   -4.0032    1.4123   -1.5052 C   0  0  0  0  0  0  0  0  0  0  0  0
   -4.4156    2.6742   -0.7158 C   0  0  0  0  0  0  0  0  0  0  0  0
   -5.7422    3.1076   -0.8401 C   0  0  0  0  0  0  0  0  0  0  0  0
   -6.2079    4.2205   -0.1345 C   0  0  0  0  0  0  0  0  0  0  0  0
   -5.3413    4.9279    0.7013 C   0  0  0  0  0  0  0  0  0  0  0  0
   -4.0103    4.5207    0.8167 C   0  0  0  0  0  0  0  0  0  0  0  0
   -3.5485    3.4083    0.1063 C   0  0  0  0  0  0  0  0  0  0  0  0
   -4.9968    0.2581   -1.2797 C   0  0  0  0  0  0  0  0  0  0  0  0
   -5.6307    0.0821   -0.0432 C   0  0  0  0  0  0  0  0  0  0  0  0
   -6.5351   -0.9664    0.1476 C   0  0  0  0  0  0  0  0  0  0  0  0
   -6.8114   -1.8517   -0.8974 C   0  0  0  0  0  0  0  0  0  0  0  0
   -6.1793   -1.6857   -2.1324 C   0  0  0  0  0  0  0  0  0  0  0  0
   -5.2753   -0.6362   -2.3203 C   0  0  0  0  0  0  0  0  0  0  0  0
   -2.5598    0.8738   -1.2794 C   0  0  0  0  0  0  0  0  0  0  0  0
   -2.3626    0.2157    0.1161 C   0  0  0  0  0  0  0  0  0  0  0  0
   -0.9333    0.1198    0.5172 N   0  0  2  0  0  4  0  0  0  0  0  0
   -0.0614   -0.6569   -0.3996 C   0  0  0  0  0  0  0  0  0  0  0  0
    1.4275   -0.4980   -0.0002 C   0  0  0  0  0  0  0  0  0  0  0  0
    1.6590   -0.9298    1.4675 C   0  0  2  0  0  0  0  0  0  0  0  0
    0.7051   -0.1214    2.3861 C   0  0  0  0  0  0  0  0  0  0  0  0
   -0.7659   -0.3017    1.9322 C   0  0  0  0  0  0  0  0  0  0  0  0
    3.1035   -0.8143    1.7473 N   0  0  0  0  0  0  0  0  0  0  0  0
    3.7178    0.4419    2.2052 C   0  0  0  0  0  0  0  0  0  0  0  0
    3.7995    0.5234    3.7522 C   0  0  0  0  0  0  0  0  0  0  0  0
    3.8836   -1.9044    1.4794 C   0  0  0  0  0  0  0  0  0  0  0  0
    3.3948   -2.9461    1.0713 O   0  0  0  0  0  0  0  0  0  0  0  0
    5.3891   -1.9265    1.6304 C   0  0  0  0  0  0  0  0  0  0  0  0
    6.0757   -1.1669    0.4853 C   0  0  0  0  0  0  0  0  0  0  0  0
    7.1517   -0.3095    0.7368 C   0  0  0  0  0  0  0  0  0  0  0  0
    7.7428    0.4116   -0.3050 C   0  0  0  0  0  0  0  0  0  0  0  0
    7.2805    0.2874   -1.6231 C   0  0  0  0  0  0  0  0  0  0  0  0
    6.2196   -0.5954   -1.8703 C   0  0  0  0  0  0  0  0  0  0  0  0
    5.6285   -1.3194   -0.8307 C   0  0  0  0  0  0  0  0  0  0  0  0
    7.8458    1.0031   -2.6332 N   0  0  0  0  0  4  0  0  0  0  0  0
    7.4403    0.8236   -3.7613 O   0  0  0  0  0  0  0  0  0  0  0  0
    8.7271    1.7884   -2.3574 O   0  0  0  0  0  1  0  0  0  0  0  0
   -4.0216    1.7631   -2.5159 H   0  0  0  0  0  0  0  0  0  0  0  0
   -6.3865    2.5963   -1.4634 H   0  0  0  0  0  0  0  0  0  0  0  0
   -7.1910    4.5191   -0.2310 H   0  0  0  0  0  0  0  0  0  0  0  0
   -5.6820    5.7460    1.2301 H   0  0  0  0  0  0  0  0  0  0  0  0
   -3.3646    5.0432    1.4291 H   0  0  0  0  0  0  0  0  0  0  0  0
   -2.5596    3.1247    0.1878 H   0  0  0  0  0  0  0  0  0  0  0  0
   -5.4285    0.7315    0.7329 H   0  0  0  0  0  0  0  0  0  0  0  0
   -6.9993   -1.0868    1.0614 H   0  0  0  0  0  0  0  0  0  0  0  0
   -7.4799   -2.6254   -0.7576 H   0  0  0  0  0  0  0  0  0  0  0  0
   -6.3800   -2.3383   -2.9063 H   0  0  0  0  0  0  0  0  0  0  0  0
   -4.8093   -0.5196   -3.2337 H   0  0  0  0  0  0  0  0  0  0  0  0
   -1.8560    1.6701   -1.4035 H   0  0  0  0  0  0  0  0  0  0  0  0
   -2.3964    0.1086   -2.0092 H   0  0  0  0  0  0  0  0  0  0  0  0
   -2.8032   -0.7594    0.1193 H   0  0  0  0  0  0  0  0  0  0  0  0
   -2.8460    0.8483    0.8310 H   0  0  0  0  0  0  0  0  0  0  0  0
   -0.5963    1.0788    0.4331 H   0  0  0  0  0  0  0  0  0  0  0  0
   -0.2076   -0.3318   -1.4085 H   0  0  0  0  0  0  0  0  0  0  0  0
   -0.3250   -1.6912   -0.3244 H   0  0  0  0  0  0  0  0  0  0  0  0
    2.0452   -1.0780   -0.6537 H   0  0  0  0  0  0  0  0  0  0  0  0
    1.6892    0.5356   -0.0899 H   0  0  0  0  0  0  0  0  0  0  0  0
    1.4096   -1.9520    1.6617 H   0  0  0  0  0  0  0  0  0  0  0  0
    0.8176   -0.4378    3.4020 H   0  0  0  0  0  0  0  0  0  0  0  0
    0.9597    0.9154    2.3143 H   0  0  0  0  0  0  0  0  0  0  0  0
   -1.0631   -1.3230    2.0484 H   0  0  0  0  0  0  0  0  0  0  0  0
   -1.3881    0.3159    2.5457 H   0  0  0  0  0  0  0  0  0  0  0  0
    3.1630    1.2752    1.8274 H   0  0  0  0  0  0  0  0  0  0  0  0
    4.7188    0.4673    1.8279 H   0  0  0  0  0  0  0  0  0  0  0  0
    2.8121    0.5003    4.1637 H   0  0  0  0  0  0  0  0  0  0  0  0
    4.3041    1.4188    4.0499 H   0  0  0  0  0  0  0  0  0  0  0  0
    4.3535   -0.3150    4.1198 H   0  0  0  0  0  0  0  0  0  0  0  0
    5.7382   -2.9376    1.6586 H   0  0  0  0  0  0  0  0  0  0  0  0
    5.6378   -1.4376    2.5491 H   0  0  0  0  0  0  0  0  0  0  0  0
    7.5120   -0.2084    1.6985 H   0  0  0  0  0  0  0  0  0  0  0  0
    8.5315    1.0451   -0.1008 H   0  0  0  0  0  0  0  0  0  0  0  0
    5.8699   -0.7125   -2.8341 H   0  0  0  0  0  0  0  0  0  0  0  0
    4.8557   -1.9718   -1.0362 H   0  0  0  0  0  0  0  0  0  0  0  0
  1  2  1  0
  2  3  2  0
  2  7  1  0
  7  6  2  0
  6  5  1  0
  5  4  2  0
  4  3  1  0
  8  9  2  0
  8 13  1  0
 13 12  2  0
 12 11  1  0
 11 10  2  0
 10  9  1  0
  1  8  1  0
  1 14  1  0
 14 15  1  0
 16 17  1  0
 16 21  1  0
 21 20  1  0
 20 19  1  0
 19 18  1  0
 18 17  1  0
 15 16  1  0
 19 22  1  0
 22 23  1  0
 23 24  1  0
 22 25  1  0
 25 26  2  0
 25 27  1  0
 28 29  2  0
 28 33  1  0
 33 32  2  0
 32 31  1  0
 31 30  2  0
 30 29  1  0
 27 28  1  0
 34 35  2  0
 34 36  1  0
 31 34  1  0
  1 37  1  0
  3 38  1  0
  4 39  1  0
  5 40  1  0
  6 41  1  0
  7 42  1  0
  9 43  1  0
 10 44  1  0
 11 45  1  0
 12 46  1  0
 13 47  1  0
 14 48  1  0
 14 49  1  0
 15 50  1  0
 15 51  1  0
 16 52  1  1
 17 53  1  0
 17 54  1  0
 18 55  1  0
 18 56  1  0
 19 57  1  6
 20 58  1  0
 20 59  1  0
 21 60  1  0
 21 61  1  0
 23 62  1  0
 23 63  1  0
 24 64  1  0
 24 65  1  0
 24 66  1  0
 27 67  1  0
 27 68  1  0
 29 69  1  0
 30 70  1  0
 32 71  1  0
 33 72  1  0
M  CHG  3  16   1  34   1  36  -1
M  END
>  <_TriposChargeType>  (44) 
GASTEIGER

>  <Activity>  (44) 
6.96

$$$$
CCR5_42
     RDKit          3D

 73 76  0  0  0  0  0  0  0  0999 V2000
   -4.0114    1.4141   -1.5048 C   0  0  0  0  0  0  0  0  0  0  0  0
   -4.4122    2.6707   -0.7012 C   0  0  0  0  0  0  0  0  0  0  0  0
   -5.7362    3.1144   -0.8164 C   0  0  0  0  0  0  0  0  0  0  0  0
   -6.1910    4.2249   -0.1000 C   0  0  0  0  0  0  0  0  0  0  0  0
   -5.3161    4.9194    0.7380 C   0  0  0  0  0  0  0  0  0  0  0  0
   -3.9879    4.5010    0.8457 C   0  0  0  0  0  0  0  0  0  0  0  0
   -3.5371    3.3908    0.1250 C   0  0  0  0  0  0  0  0  0  0  0  0
   -5.0091    0.2621   -1.2862 C   0  0  0  0  0  0  0  0  0  0  0  0
   -5.6405    0.0780   -0.0496 C   0  0  0  0  0  0  0  0  0  0  0  0
   -6.5474   -0.9696    0.1348 C   0  0  0  0  0  0  0  0  0  0  0  0
   -6.8289   -1.8455   -0.9167 C   0  0  0  0  0  0  0  0  0  0  0  0
   -6.1999   -1.6708   -2.1521 C   0  0  0  0  0  0  0  0  0  0  0  0
   -5.2934   -0.6222   -2.3336 C   0  0  0  0  0  0  0  0  0  0  0  0
   -2.5699    0.8663   -1.2909 C   0  0  0  0  0  0  0  0  0  0  0  0
   -2.3690    0.1937    0.0974 C   0  0  0  0  0  0  0  0  0  0  0  0
   -0.9388    0.0990    0.4951 N   0  0  2  0  0  4  0  0  0  0  0  0
   -0.0616   -0.6547   -0.4364 C   0  0  0  0  0  0  0  0  0  0  0  0
    1.4271   -0.4776   -0.0434 C   0  0  0  0  0  0  0  0  0  0  0  0
    1.6644   -0.9183    1.4196 C   0  0  2  0  0  0  0  0  0  0  0  0
    0.7064   -0.1302    2.3527 C   0  0  0  0  0  0  0  0  0  0  0  0
   -0.7633   -0.3356    1.9056 C   0  0  0  0  0  0  0  0  0  0  0  0
    3.1026   -0.7863    1.7197 N   0  0  0  0  0  0  0  0  0  0  0  0
    8.1259    0.7423   -2.4217 N   0  0  0  0  0  4  0  0  0  0  0  0
    7.7501    0.5384   -3.5560 O   0  0  0  0  0  0  0  0  0  0  0  0
    3.8867   -1.8978    1.6014 C   0  0  0  0  0  0  0  0  0  0  0  0
    3.4227   -2.9751    1.2635 O   0  0  0  0  0  0  0  0  0  0  0  0
    5.3772   -1.8890    1.8568 C   0  0  0  0  0  0  0  0  0  0  0  0
    6.1443   -1.2155    0.7096 C   0  0  0  0  0  0  0  0  0  0  0  0
    7.2243   -0.3670    0.9724 C   0  0  0  0  0  0  0  0  0  0  0  0
    7.8848    0.2849   -0.0732 C   0  0  0  0  0  0  0  0  0  0  0  0
    7.4928    0.0942   -1.4061 C   0  0  0  0  0  0  0  0  0  0  0  0
    6.4299   -0.7838   -1.6625 C   0  0  0  0  0  0  0  0  0  0  0  0
    5.7676   -1.4364   -0.6187 C   0  0  0  0  0  0  0  0  0  0  0  0
    9.0347    1.4950   -2.1446 O   0  0  0  0  0  1  0  0  0  0  0  0
    3.7142    0.4998    2.0792 C   0  0  0  0  0  0  0  0  0  0  0  0
    3.9360    0.5577    3.5702 C   0  0  0  0  0  0  0  0  0  0  0  0
    5.0760    0.9882    4.1250 C   0  0  0  0  0  0  0  0  0  0  0  0
   -4.0345    1.7749   -2.5119 H   0  0  0  0  0  0  0  0  0  0  0  0
   -6.3867    2.6126   -1.4409 H   0  0  0  0  0  0  0  0  0  0  0  0
   -7.1723    4.5313   -0.1902 H   0  0  0  0  0  0  0  0  0  0  0  0
   -5.6486    5.7362    1.2740 H   0  0  0  0  0  0  0  0  0  0  0  0
   -3.3362    5.0136    1.4601 H   0  0  0  0  0  0  0  0  0  0  0  0
   -2.5504    3.0983    0.2018 H   0  0  0  0  0  0  0  0  0  0  0  0
   -5.4346    0.7206    0.7312 H   0  0  0  0  0  0  0  0  0  0  0  0
   -7.0096   -1.0962    1.0488 H   0  0  0  0  0  0  0  0  0  0  0  0
   -7.4989   -2.6187   -0.7814 H   0  0  0  0  0  0  0  0  0  0  0  0
   -6.4046   -2.3162   -2.9309 H   0  0  0  0  0  0  0  0  0  0  0  0
   -4.8299   -0.4989   -3.2474 H   0  0  0  0  0  0  0  0  0  0  0  0
   -1.8627    1.6603   -1.4108 H   0  0  0  0  0  0  0  0  0  0  0  0
   -2.4140    0.1072   -2.0287 H   0  0  0  0  0  0  0  0  0  0  0  0
   -2.8059   -0.7830    0.0905 H   0  0  0  0  0  0  0  0  0  0  0  0
   -2.8541    0.8162    0.8199 H   0  0  0  0  0  0  0  0  0  0  0  0
   -0.6085    1.0614    0.4241 H   0  0  0  0  0  0  0  0  0  0  0  0
   -0.2187   -0.3202   -1.4406 H   0  0  0  0  0  0  0  0  0  0  0  0
   -0.3095   -1.6936   -0.3723 H   0  0  0  0  0  0  0  0  0  0  0  0
    2.0502   -1.0450   -0.7027 H   0  0  0  0  0  0  0  0  0  0  0  0
    1.6778    0.5591   -0.1286 H   0  0  0  0  0  0  0  0  0  0  0  0
    1.4258   -1.9482    1.5849 H   0  0  0  0  0  0  0  0  0  0  0  0
    0.8317   -0.4515    3.3656 H   0  0  0  0  0  0  0  0  0  0  0  0
    0.9434    0.9113    2.2895 H   0  0  0  0  0  0  0  0  0  0  0  0
   -1.0396   -1.3639    2.0109 H   0  0  0  0  0  0  0  0  0  0  0  0
   -1.3977    0.2591    2.5291 H   0  0  0  0  0  0  0  0  0  0  0  0
    5.7292   -2.8905    1.9913 H   0  0  0  0  0  0  0  0  0  0  0  0
    5.5541   -1.3222    2.7470 H   0  0  0  0  0  0  0  0  0  0  0  0
    7.5361   -0.2210    1.9453 H   0  0  0  0  0  0  0  0  0  0  0  0
    8.6731    0.9162    0.1391 H   0  0  0  0  0  0  0  0  0  0  0  0
    6.1321   -0.9507   -2.6364 H   0  0  0  0  0  0  0  0  0  0  0  0
    4.9944   -2.0864   -0.8302 H   0  0  0  0  0  0  0  0  0  0  0  0
    4.6424    0.6254    1.5620 H   0  0  0  0  0  0  0  0  0  0  0  0
    3.0554    1.2927    1.7925 H   0  0  0  0  0  0  0  0  0  0  0  0
    3.1722    0.2507    4.1926 H   0  0  0  0  0  0  0  0  0  0  0  0
    5.8557    1.3009    3.5256 H   0  0  0  0  0  0  0  0  0  0  0  0
    5.1750    1.0073    5.1521 H   0  0  0  0  0  0  0  0  0  0  0  0
  1  2  1  0
  2  3  2  0
  2  7  1  0
  7  6  2  0
  6  5  1  0
  5  4  2  0
  4  3  1  0
  8  9  2  0
  8 13  1  0
 13 12  2  0
 12 11  1  0
 11 10  2  0
 10  9  1  0
  1  8  1  0
  1 14  1  0
 14 15  1  0
 16 17  1  0
 16 21  1  0
 21 20  1  0
 20 19  1  0
 19 18  1  0
 18 17  1  0
 15 16  1  0
 19 22  1  0
 23 24  2  0
 23 34  1  0
 22 25  1  0
 25 26  2  0
 25 27  1  0
 28 29  2  0
 28 33  1  0
 33 32  2  0
 32 31  1  0
 31 30  2  0
 30 29  1  0
 27 28  1  0
 31 23  1  0
 35 36  1  0
 36 37  2  0
 22 35  1  0
  1 38  1  0
  3 39  1  0
  4 40  1  0
  5 41  1  0
  6 42  1  0
  7 43  1  0
  9 44  1  0
 10 45  1  0
 11 46  1  0
 12 47  1  0
 13 48  1  0
 14 49  1  0
 14 50  1  0
 15 51  1  0
 15 52  1  0
 16 53  1  1
 17 54  1  0
 17 55  1  0
 18 56  1  0
 18 57  1  0
 19 58  1  6
 20 59  1  0
 20 60  1  0
 21 61  1  0
 21 62  1  0
 27 63  1  0
 27 64  1  0
 29 65  1  0
 30 66  1  0
 32 67  1  0
 33 68  1  0
 35 69  1  0
 35 70  1  0
 36 71  1  0
 37 72  1  0
 37 73  1  0
M  CHG  3  16   1  23   1  34  -1
M  END
>  <_TriposChargeType>  (45) 
GASTEIGER

>  <Activity>  (45) 
6.74

$$$$
CCR5_22
     RDKit          3D

 70 73  0  0  0  0  0  0  0  0999 V2000
   -3.9948    1.4261   -1.5041 C   0  0  0  0  0  0  0  0  0  0  0  0
   -4.4286    2.6752   -0.7057 C   0  0  0  0  0  0  0  0  0  0  0  0
   -5.7707    3.0678   -0.7947 C   0  0  0  0  0  0  0  0  0  0  0  0
   -6.2548    4.1571   -0.0650 C   0  0  0  0  0  0  0  0  0  0  0  0
   -5.3910    4.8852    0.7557 C   0  0  0  0  0  0  0  0  0  0  0  0
   -4.0434    4.5254    0.8279 C   0  0  0  0  0  0  0  0  0  0  0  0
   -3.5632    3.4375    0.0924 C   0  0  0  0  0  0  0  0  0  0  0  0
   -4.9777    0.2580   -1.3033 C   0  0  0  0  0  0  0  0  0  0  0  0
   -5.6044    0.0467   -0.0687 C   0  0  0  0  0  0  0  0  0  0  0  0
   -6.4993   -1.0137    0.1003 C   0  0  0  0  0  0  0  0  0  0  0  0
   -6.7729   -1.8755   -0.9648 C   0  0  0  0  0  0  0  0  0  0  0  0
   -6.1478   -1.6742   -2.1982 C   0  0  0  0  0  0  0  0  0  0  0  0
   -5.2533   -0.6130   -2.3642 C   0  0  0  0  0  0  0  0  0  0  0  0
   -2.5509    0.8943   -1.2647 C   0  0  0  0  0  0  0  0  0  0  0  0
   -2.3518    0.2702    0.1457 C   0  0  0  0  0  0  0  0  0  0  0  0
   -0.9128    0.1715    0.5107 N   0  0  2  0  0  4  0  0  0  0  0  0
   -0.1331   -0.8084   -0.2868 C   0  0  0  0  0  0  0  0  0  0  0  0
    1.3827   -0.7030    0.0205 C   0  0  0  0  0  0  0  0  0  0  0  0
    1.6557   -0.8885    1.5343 C   0  0  2  0  0  0  0  0  0  0  0  0
    0.8204    0.1734    2.2963 C   0  0  0  0  0  0  0  0  0  0  0  0
   -0.6856    0.0146    1.9699 C   0  0  0  0  0  0  0  0  0  0  0  0
    3.1131   -0.8564    1.7524 N   0  0  0  0  0  0  0  0  0  0  0  0
    3.8229    0.3659    2.1553 C   0  0  0  0  0  0  0  0  0  0  0  0
    7.5349    1.9622   -2.2226 C   0  0  0  0  0  0  0  0  0  0  0  0
    3.8121   -1.9830    1.4269 C   0  0  0  0  0  0  0  0  0  0  0  0
    3.2399   -3.0030    1.0781 O   0  0  0  0  0  0  0  0  0  0  0  0
    5.3204   -2.0640    1.4475 C   0  0  0  0  0  0  0  0  0  0  0  0
    5.9251   -1.0210    0.4978 C   0  0  0  0  0  0  0  0  0  0  0  0
    6.9885   -0.2054    0.9011 C   0  0  0  0  0  0  0  0  0  0  0  0
    7.5057    0.7619    0.0341 C   0  0  0  0  0  0  0  0  0  0  0  0
    6.9777    0.9133   -1.2530 C   0  0  0  0  0  0  0  0  0  0  0  0
    5.9222    0.0906   -1.6596 C   0  0  0  0  0  0  0  0  0  0  0  0
    5.4049   -0.8763   -0.7931 C   0  0  0  0  0  0  0  0  0  0  0  0
    6.6873    3.0245   -2.2553 F   0  0  0  0  0  0  0  0  0  0  0  0
    7.6296    1.4305   -3.4711 F   0  0  0  0  0  0  0  0  0  0  0  0
    8.7676    2.3886   -1.8356 F   0  0  0  0  0  0  0  0  0  0  0  0
   -4.0049    1.7919   -2.5096 H   0  0  0  0  0  0  0  0  0  0  0  0
   -6.4127    2.5437   -1.4096 H   0  0  0  0  0  0  0  0  0  0  0  0
   -7.2496    4.4230   -0.1327 H   0  0  0  0  0  0  0  0  0  0  0  0
   -5.7458    5.6835    1.3050 H   0  0  0  0  0  0  0  0  0  0  0  0
   -3.3991    5.0650    1.4269 H   0  0  0  0  0  0  0  0  0  0  0  0
   -2.5616    3.1929    0.1373 H   0  0  0  0  0  0  0  0  0  0  0  0
   -5.4040    0.6787    0.7222 H   0  0  0  0  0  0  0  0  0  0  0  0
   -6.9584   -1.1602    1.0129 H   0  0  0  0  0  0  0  0  0  0  0  0
   -7.4343   -2.6580   -0.8411 H   0  0  0  0  0  0  0  0  0  0  0  0
   -6.3466   -2.3093   -2.9869 H   0  0  0  0  0  0  0  0  0  0  0  0
   -4.7922   -0.4704   -3.2764 H   0  0  0  0  0  0  0  0  0  0  0  0
   -1.8478    1.6880   -1.4084 H   0  0  0  0  0  0  0  0  0  0  0  0
   -2.3877    0.1113   -1.9754 H   0  0  0  0  0  0  0  0  0  0  0  0
   -2.8025   -0.6996    0.1805 H   0  0  0  0  0  0  0  0  0  0  0  0
   -2.8240    0.9158    0.8565 H   0  0  0  0  0  0  0  0  0  0  0  0
   -0.5362    1.0829    0.2500 H   0  0  0  0  0  0  0  0  0  0  0  0
   -0.3059   -0.6494   -1.3307 H   0  0  0  0  0  0  0  0  0  0  0  0
   -0.4595   -1.7912   -0.0175 H   0  0  0  0  0  0  0  0  0  0  0  0
    1.9218   -1.4370   -0.5412 H   0  0  0  0  0  0  0  0  0  0  0  0
    1.7155    0.2735   -0.2633 H   0  0  0  0  0  0  0  0  0  0  0  0
    1.3416   -1.8353    1.9215 H   0  0  0  0  0  0  0  0  0  0  0  0
    0.9799    0.0793    3.3502 H   0  0  0  0  0  0  0  0  0  0  0  0
    1.1367    1.1460    1.9818 H   0  0  0  0  0  0  0  0  0  0  0  0
   -1.0342   -0.9430    2.2961 H   0  0  0  0  0  0  0  0  0  0  0  0
   -1.2321    0.7753    2.4872 H   0  0  0  0  0  0  0  0  0  0  0  0
    3.1128    1.1369    2.3702 H   0  0  0  0  0  0  0  0  0  0  0  0
    4.4882    0.6810    1.3787 H   0  0  0  0  0  0  0  0  0  0  0  0
    4.3998    0.1643    3.0336 H   0  0  0  0  0  0  0  0  0  0  0  0
    5.6397   -3.0459    1.1667 H   0  0  0  0  0  0  0  0  0  0  0  0
    5.6602   -1.8592    2.4412 H   0  0  0  0  0  0  0  0  0  0  0  0
    7.3931   -0.3186    1.8437 H   0  0  0  0  0  0  0  0  0  0  0  0
    8.2812    1.3676    0.3451 H   0  0  0  0  0  0  0  0  0  0  0  0
    5.5230    0.1982   -2.6051 H   0  0  0  0  0  0  0  0  0  0  0  0
    4.6347   -1.4872   -1.1072 H   0  0  0  0  0  0  0  0  0  0  0  0
  1  2  1  0
  2  3  2  0
  2  7  1  0
  7  6  2  0
  6  5  1  0
  5  4  2  0
  4  3  1  0
  8  9  2  0
  8 13  1  0
 13 12  2  0
 12 11  1  0
 11 10  2  0
 10  9  1  0
  1  8  1  0
  1 14  1  0
 14 15  1  0
 16 17  1  0
 16 21  1  0
 21 20  1  0
 20 19  1  0
 19 18  1  0
 18 17  1  0
 15 16  1  0
 19 22  1  0
 22 23  1  0
 31 24  1  0
 22 25  1  0
 25 26  2  0
 25 27  1  0
 28 29  2  0
 33 28  1  0
 32 33  2  0
 32 31  1  0
 31 30  2  0
 30 29  1  0
 27 28  1  0
 24 34  1  0
 24 35  1  0
 24 36  1  0
  1 37  1  0
  3 38  1  0
  4 39  1  0
  5 40  1  0
  6 41  1  0
  7 42  1  0
  9 43  1  0
 10 44  1  0
 11 45  1  0
 12 46  1  0
 13 47  1  0
 14 48  1  0
 14 49  1  0
 15 50  1  0
 15 51  1  0
 16 52  1  6
 17 53  1  0
 17 54  1  0
 18 55  1  0
 18 56  1  0
 19 57  1  1
 20 58  1  0
 20 59  1  0
 21 60  1  0
 21 61  1  0
 23 62  1  0
 23 63  1  0
 23 64  1  0
 27 65  1  0
 27 66  1  0
 29 67  1  0
 30 68  1  0
 32 69  1  0
 33 70  1  0
M  CHG  1  16   1
M  END
>  <_TriposChargeType>  (46) 
GASTEIGER

>  <Activity>  (46) 
6.43

$$$$
CCR5_46
     RDKit          3D

 66 69  0  0  0  0  0  0  0  0999 V2000
   -4.0401    1.4792   -1.4963 C   0  0  0  0  0  0  0  0  0  0  0  0
   -4.4418    2.6814   -0.6140 C   0  0  0  0  0  0  0  0  0  0  0  0
   -5.7780    3.1000   -0.6641 C   0  0  0  0  0  0  0  0  0  0  0  0
   -6.2333    4.1591    0.1260 C   0  0  0  0  0  0  0  0  0  0  0  0
   -5.3473    4.8263    0.9743 C   0  0  0  0  0  0  0  0  0  0  0  0
   -4.0075    4.4338    1.0176 C   0  0  0  0  0  0  0  0  0  0  0  0
   -3.5559    3.3763    0.2220 C   0  0  0  0  0  0  0  0  0  0  0  0
   -5.0104    0.2976   -1.3171 C   0  0  0  0  0  0  0  0  0  0  0  0
   -5.5998    0.0293   -0.0753 C   0  0  0  0  0  0  0  0  0  0  0  0
   -6.4841   -1.0430    0.0731 C   0  0  0  0  0  0  0  0  0  0  0  0
   -6.7835   -1.8603   -1.0198 C   0  0  0  0  0  0  0  0  0  0  0  0
   -6.1950   -1.6025   -2.2605 C   0  0  0  0  0  0  0  0  0  0  0  0
   -5.3117   -0.5289   -2.4063 C   0  0  0  0  0  0  0  0  0  0  0  0
   -2.5840    0.9471   -1.3534 C   0  0  0  0  0  0  0  0  0  0  0  0
   -2.3271    0.2077   -0.0090 C   0  0  0  0  0  0  0  0  0  0  0  0
   -0.8805    0.1038    0.3229 N   0  0  2  0  0  4  0  0  0  0  0  0
   -0.0540   -0.6390   -0.6624 C   0  0  0  0  0  0  0  0  0  0  0  0
    1.4503   -0.4699   -0.3300 C   0  0  0  0  0  0  0  0  0  0  0  0
    1.7443   -0.9753    1.1059 C   0  0  2  0  0  0  0  0  0  0  0  0
    0.8513   -0.2033    2.1060 C   0  0  0  0  0  0  0  0  0  0  0  0
   -0.6419   -0.3521    1.7180 C   0  0  0  0  0  0  0  0  0  0  0  0
    3.1673   -0.8717    1.4737 N   0  0  0  0  0  0  0  0  0  0  0  0
    3.9532    0.3184    1.1222 C   0  0  0  0  0  0  0  0  0  0  0  0
    9.3381    0.3392   -0.6685 Cl  0  0  0  0  0  0  0  0  0  0  0  0
    3.6979   -1.8670    2.2478 C   0  0  0  0  0  0  0  0  0  0  0  0
    2.9226   -2.5968    2.8450 O   0  0  0  0  0  0  0  0  0  0  0  0
    4.9662   -2.1382    2.4287 N   0  0  0  0  0  0  0  0  0  0  0  0
    5.9789   -1.5849    1.7239 C   0  0  0  0  0  0  0  0  0  0  0  0
    6.9964   -0.8895    2.3839 C   0  0  0  0  0  0  0  0  0  0  0  0
    8.0319   -0.2995    1.6537 C   0  0  0  0  0  0  0  0  0  0  0  0
    8.0570   -0.4138    0.2600 C   0  0  0  0  0  0  0  0  0  0  0  0
    7.0556   -1.1328   -0.3986 C   0  0  0  0  0  0  0  0  0  0  0  0
    6.0235   -1.7264    0.3335 C   0  0  0  0  0  0  0  0  0  0  0  0
    9.2922    0.5821    2.4931 Cl  0  0  0  0  0  0  0  0  0  0  0  0
   -4.0967    1.8967   -2.4798 H   0  0  0  0  0  0  0  0  0  0  0  0
   -6.4372    2.6181   -1.2952 H   0  0  0  0  0  0  0  0  0  0  0  0
   -7.2232    4.4477    0.0825 H   0  0  0  0  0  0  0  0  0  0  0  0
   -5.6801    5.6041    1.5653 H   0  0  0  0  0  0  0  0  0  0  0  0
   -3.3478    4.9266    1.6397 H   0  0  0  0  0  0  0  0  0  0  0  0
   -2.5607    3.1045    0.2503 H   0  0  0  0  0  0  0  0  0  0  0  0
   -5.3796    0.6277    0.7362 H   0  0  0  0  0  0  0  0  0  0  0  0
   -6.9164   -1.2312    0.9911 H   0  0  0  0  0  0  0  0  0  0  0  0
   -7.4370   -2.6516   -0.9110 H   0  0  0  0  0  0  0  0  0  0  0  0
   -6.4125   -2.2050   -3.0697 H   0  0  0  0  0  0  0  0  0  0  0  0
   -4.8781   -0.3440   -3.3244 H   0  0  0  0  0  0  0  0  0  0  0  0
   -1.8941    1.7588   -1.4537 H   0  0  0  0  0  0  0  0  0  0  0  0
   -2.4399    0.2288   -2.1332 H   0  0  0  0  0  0  0  0  0  0  0  0
   -2.7593   -0.7704   -0.0473 H   0  0  0  0  0  0  0  0  0  0  0  0
   -2.7872    0.7880    0.7633 H   0  0  0  0  0  0  0  0  0  0  0  0
   -0.5473    1.0655    0.2554 H   0  0  0  0  0  0  0  0  0  0  0  0
   -0.2547   -0.2862   -1.6524 H   0  0  0  0  0  0  0  0  0  0  0  0
   -0.3046   -1.6779   -0.6100 H   0  0  0  0  0  0  0  0  0  0  0  0
    2.0462   -1.0068   -1.0382 H   0  0  0  0  0  0  0  0  0  0  0  0
    1.6989    0.5694   -0.3852 H   0  0  0  0  0  0  0  0  0  0  0  0
    1.5123   -2.0193    1.1410 H   0  0  0  0  0  0  0  0  0  0  0  0
    1.0115   -0.5672    3.0994 H   0  0  0  0  0  0  0  0  0  0  0  0
    1.1135    0.8335    2.0709 H   0  0  0  0  0  0  0  0  0  0  0  0
   -0.9479   -1.3716    1.8267 H   0  0  0  0  0  0  0  0  0  0  0  0
   -1.2205    0.2638    2.3743 H   0  0  0  0  0  0  0  0  0  0  0  0
    3.3609    0.9713    0.5157 H   0  0  0  0  0  0  0  0  0  0  0  0
    4.8430    0.0339    0.6005 H   0  0  0  0  0  0  0  0  0  0  0  0
    4.2357    0.8306    2.0182 H   0  0  0  0  0  0  0  0  0  0  0  0
    5.1989   -2.7914    3.1276 H   0  0  0  0  0  0  0  0  0  0  0  0
    6.9829   -0.8116    3.4129 H   0  0  0  0  0  0  0  0  0  0  0  0
    7.0783   -1.2255   -1.4262 H   0  0  0  0  0  0  0  0  0  0  0  0
    5.2933   -2.2699   -0.1528 H   0  0  0  0  0  0  0  0  0  0  0  0
  1  2  1  0
  2  3  2  0
  2  7  1  0
  7  6  2  0
  6  5  1  0
  5  4  2  0
  4  3  1  0
  8  9  2  0
  8 13  1  0
 13 12  2  0
 12 11  1  0
 11 10  2  0
 10  9  1  0
  1  8  1  0
  1 14  1  0
 14 15  1  0
 16 17  1  0
 16 21  1  0
 21 20  1  0
 20 19  1  0
 19 18  1  0
 18 17  1  0
 15 16  1  0
 19 22  1  0
 22 23  1  0
 31 24  1  0
 22 25  1  0
 25 26  2  0
 25 27  1  0
 28 29  2  0
 33 28  1  0
 32 33  2  0
 32 31  1  0
 31 30  2  0
 30 29  1  0
 27 28  1  0
 30 34  1  0
  1 35  1  0
  3 36  1  0
  4 37  1  0
  5 38  1  0
  6 39  1  0
  7 40  1  0
  9 41  1  0
 10 42  1  0
 11 43  1  0
 12 44  1  0
 13 45  1  0
 14 46  1  0
 14 47  1  0
 15 48  1  0
 15 49  1  0
 16 50  1  1
 17 51  1  0
 17 52  1  0
 18 53  1  0
 18 54  1  0
 19 55  1  6
 20 56  1  0
 20 57  1  0
 21 58  1  0
 21 59  1  0
 23 60  1  0
 23 61  1  0
 23 62  1  0
 27 63  1  0
 29 64  1  0
 32 65  1  0
 33 66  1  0
M  CHG  1  16   1
M  END
>  <_TriposChargeType>  (47) 
GASTEIGER

>  <Activity>  (47) 
6.43

$$$$
CCR5_28
     RDKit          3D

 71 74  0  0  0  0  0  0  0  0999 V2000
   -3.9977    1.4242   -1.5075 C   0  0  0  0  0  0  0  0  0  0  0  0
   -4.4299    2.6722   -0.7061 C   0  0  0  0  0  0  0  0  0  0  0  0
   -5.7733    3.0623   -0.7875 C   0  0  0  0  0  0  0  0  0  0  0  0
   -6.2559    4.1493   -0.0532 C   0  0  0  0  0  0  0  0  0  0  0  0
   -5.3892    4.8779    0.7640 C   0  0  0  0  0  0  0  0  0  0  0  0
   -4.0403    4.5213    0.8278 C   0  0  0  0  0  0  0  0  0  0  0  0
   -3.5618    3.4357    0.0877 C   0  0  0  0  0  0  0  0  0  0  0  0
   -4.9799    0.2556   -1.3052 C   0  0  0  0  0  0  0  0  0  0  0  0
   -5.6025    0.0419   -0.0689 C   0  0  0  0  0  0  0  0  0  0  0  0
   -6.4978   -1.0181    0.1008 C   0  0  0  0  0  0  0  0  0  0  0  0
   -6.7761   -1.8772   -0.9653 C   0  0  0  0  0  0  0  0  0  0  0  0
   -6.1547   -1.6740   -2.2002 C   0  0  0  0  0  0  0  0  0  0  0  0
   -5.2595   -0.6133   -2.3669 C   0  0  0  0  0  0  0  0  0  0  0  0
   -2.5529    0.8931   -1.2718 C   0  0  0  0  0  0  0  0  0  0  0  0
   -2.3492    0.2729    0.1396 C   0  0  0  0  0  0  0  0  0  0  0  0
   -0.9092    0.1823    0.5026 N   0  0  2  0  0  4  0  0  0  0  0  0
   -0.1267   -0.7984   -0.2919 C   0  0  0  0  0  0  0  0  0  0  0  0
    1.3893   -0.6940    0.0169 C   0  0  0  0  0  0  0  0  0  0  0  0
    1.6573   -0.8752    1.5319 C   0  0  2  0  0  0  0  0  0  0  0  0
    0.8257    0.1948    2.2865 C   0  0  0  0  0  0  0  0  0  0  0  0
   -0.6807    0.0356    1.9626 C   0  0  0  0  0  0  0  0  0  0  0  0
    3.1138   -0.8608    1.7583 N   0  0  0  0  0  0  0  0  0  0  0  0
    3.8427    0.3486    2.1652 C   0  0  0  0  0  0  0  0  0  0  0  0
    7.8506    2.1444   -2.0965 S   0  0  0  0  0  0  0  0  0  0  0  0
    3.8010   -1.9972    1.4416 C   0  0  0  0  0  0  0  0  0  0  0  0
    3.2182   -3.0092    1.0855 O   0  0  0  0  0  0  0  0  0  0  0  0
    5.3083   -2.0984    1.4920 C   0  0  0  0  0  0  0  0  0  0  0  0
    5.9672   -1.0407    0.5964 C   0  0  0  0  0  0  0  0  0  0  0  0
    7.0178   -0.2467    1.0712 C   0  0  0  0  0  0  0  0  0  0  0  0
    7.5849    0.7341    0.2527 C   0  0  0  0  0  0  0  0  0  0  0  0
    7.1165    0.9144   -1.0512 C   0  0  0  0  0  0  0  0  0  0  0  0
    6.0799    0.1128   -1.5357 C   0  0  0  0  0  0  0  0  0  0  0  0
    5.5089   -0.8630   -0.7139 C   0  0  0  0  0  0  0  0  0  0  0  0
    9.2807    1.1641   -2.6454 C   0  0  0  0  0  0  0  0  0  0  0  0
   -4.0105    1.7905   -2.5128 H   0  0  0  0  0  0  0  0  0  0  0  0
   -6.4174    2.5380   -1.4001 H   0  0  0  0  0  0  0  0  0  0  0  0
   -7.2517    4.4131   -0.1149 H   0  0  0  0  0  0  0  0  0  0  0  0
   -5.7429    5.6743    1.3169 H   0  0  0  0  0  0  0  0  0  0  0  0
   -3.3938    5.0615    1.4239 H   0  0  0  0  0  0  0  0  0  0  0  0
   -2.5593    3.1938    0.1260 H   0  0  0  0  0  0  0  0  0  0  0  0
   -5.3987    0.6718    0.7228 H   0  0  0  0  0  0  0  0  0  0  0  0
   -6.9538   -1.1663    1.0147 H   0  0  0  0  0  0  0  0  0  0  0  0
   -7.4382   -2.6590   -0.8411 H   0  0  0  0  0  0  0  0  0  0  0  0
   -6.3567   -2.3073   -2.9896 H   0  0  0  0  0  0  0  0  0  0  0  0
   -4.8009   -0.4695   -3.2801 H   0  0  0  0  0  0  0  0  0  0  0  0
   -1.8503    1.6864   -1.4200 H   0  0  0  0  0  0  0  0  0  0  0  0
   -2.3920    0.1083   -1.9810 H   0  0  0  0  0  0  0  0  0  0  0  0
   -2.7949   -0.6991    0.1769 H   0  0  0  0  0  0  0  0  0  0  0  0
   -2.8239    0.9172    0.8498 H   0  0  0  0  0  0  0  0  0  0  0  0
   -0.5348    1.0930    0.2364 H   0  0  0  0  0  0  0  0  0  0  0  0
   -0.2978   -0.6411   -1.3363 H   0  0  0  0  0  0  0  0  0  0  0  0
   -0.4532   -1.7805   -0.0202 H   0  0  0  0  0  0  0  0  0  0  0  0
    1.9283   -1.4309   -0.5411 H   0  0  0  0  0  0  0  0  0  0  0  0
    1.7252    0.2805   -0.2703 H   0  0  0  0  0  0  0  0  0  0  0  0
    1.3352   -1.8181    1.9220 H   0  0  0  0  0  0  0  0  0  0  0  0
    0.9861    0.1088    3.3409 H   0  0  0  0  0  0  0  0  0  0  0  0
    1.1438    1.1644    1.9646 H   0  0  0  0  0  0  0  0  0  0  0  0
   -1.0302   -0.9192    2.2960 H   0  0  0  0  0  0  0  0  0  0  0  0
   -1.2257    0.8008    2.4749 H   0  0  0  0  0  0  0  0  0  0  0  0
    3.1453    1.1330    2.3731 H   0  0  0  0  0  0  0  0  0  0  0  0
    4.5201    0.6500    1.3937 H   0  0  0  0  0  0  0  0  0  0  0  0
    4.4085    0.1378    3.0485 H   0  0  0  0  0  0  0  0  0  0  0  0
    5.6187   -3.0769    1.1902 H   0  0  0  0  0  0  0  0  0  0  0  0
    5.6197   -1.9209    2.5002 H   0  0  0  0  0  0  0  0  0  0  0  0
    7.3750   -0.3861    2.0293 H   0  0  0  0  0  0  0  0  0  0  0  0
    8.3504    1.3257    0.6118 H   0  0  0  0  0  0  0  0  0  0  0  0
    5.7359    0.2411   -2.5002 H   0  0  0  0  0  0  0  0  0  0  0  0
    4.7452   -1.4556   -1.0753 H   0  0  0  0  0  0  0  0  0  0  0  0
    9.8790    1.7482   -3.3130 H   0  0  0  0  0  0  0  0  0  0  0  0
    8.9519    0.2685   -3.1299 H   0  0  0  0  0  0  0  0  0  0  0  0
    9.8682    0.8916   -1.7936 H   0  0  0  0  0  0  0  0  0  0  0  0
  1  2  1  0
  2  3  2  0
  2  7  1  0
  7  6  2  0
  6  5  1  0
  5  4  2  0
  4  3  1  0
  8  9  2  0
  8 13  1  0
 13 12  2  0
 12 11  1  0
 11 10  2  0
 10  9  1  0
  1  8  1  0
  1 14  1  0
 14 15  1  0
 16 17  1  0
 16 21  1  0
 21 20  1  0
 20 19  1  0
 19 18  1  0
 18 17  1  0
 15 16  1  0
 19 22  1  0
 22 23  1  0
 31 24  1  0
 22 25  1  0
 25 26  2  0
 25 27  1  0
 28 29  2  0
 33 28  1  0
 32 33  2  0
 32 31  1  0
 31 30  2  0
 30 29  1  0
 27 28  1  0
 24 34  1  0
  1 35  1  0
  3 36  1  0
  4 37  1  0
  5 38  1  0
  6 39  1  0
  7 40  1  0
  9 41  1  0
 10 42  1  0
 11 43  1  0
 12 44  1  0
 13 45  1  0
 14 46  1  0
 14 47  1  0
 15 48  1  0
 15 49  1  0
 16 50  1  6
 17 51  1  0
 17 52  1  0
 18 53  1  0
 18 54  1  0
 19 55  1  1
 20 56  1  0
 20 57  1  0
 21 58  1  0
 21 59  1  0
 23 60  1  0
 23 61  1  0
 23 62  1  0
 27 63  1  0
 27 64  1  0
 29 65  1  0
 30 66  1  0
 32 67  1  0
 33 68  1  0
 34 69  1  0
 34 70  1  0
 34 71  1  0
M  CHG  1  16   1
M  END
>  <_TriposChargeType>  (48) 
GASTEIGER

>  <Activity>  (48) 
6.25

$$$$
CCR5_43
     RDKit          3D

 67 70  0  0  0  0  0  0  0  0999 V2000
   -4.0414    1.4823   -1.5033 C   0  0  0  0  0  0  0  0  0  0  0  0
   -4.4403    2.6772   -0.6095 C   0  0  0  0  0  0  0  0  0  0  0  0
   -5.7821    3.0804   -0.6293 C   0  0  0  0  0  0  0  0  0  0  0  0
   -6.2345    4.1256    0.1809 C   0  0  0  0  0  0  0  0  0  0  0  0
   -5.3394    4.7970    1.0163 C   0  0  0  0  0  0  0  0  0  0  0  0
   -3.9934    4.4243    1.0247 C   0  0  0  0  0  0  0  0  0  0  0  0
   -3.5452    3.3804    0.2095 C   0  0  0  0  0  0  0  0  0  0  0  0
   -5.0115    0.2992   -1.3301 C   0  0  0  0  0  0  0  0  0  0  0  0
   -5.5874    0.0142   -0.0856 C   0  0  0  0  0  0  0  0  0  0  0  0
   -6.4713   -1.0591    0.0579 C   0  0  0  0  0  0  0  0  0  0  0  0
   -6.7846   -1.8602   -1.0431 C   0  0  0  0  0  0  0  0  0  0  0  0
   -6.2101   -1.5855   -2.2867 C   0  0  0  0  0  0  0  0  0  0  0  0
   -5.3265   -0.5115   -2.4272 C   0  0  0  0  0  0  0  0  0  0  0  0
   -2.5857    0.9467   -1.3666 C   0  0  0  0  0  0  0  0  0  0  0  0
   -2.3222    0.2197   -0.0170 C   0  0  0  0  0  0  0  0  0  0  0  0
   -0.8728    0.1167    0.3029 N   0  0  2  0  0  4  0  0  0  0  0  0
   -0.0708   -0.6859   -0.6555 C   0  0  0  0  0  0  0  0  0  0  0  0
    1.4413   -0.5325   -0.3496 C   0  0  0  0  0  0  0  0  0  0  0  0
    1.7424   -0.9744    1.1062 C   0  0  2  0  0  0  0  0  0  0  0  0
    0.8795   -0.1325    2.0755 C   0  0  0  0  0  0  0  0  0  0  0  0
   -0.6216   -0.2710    1.7161 C   0  0  0  0  0  0  0  0  0  0  0  0
    3.1687   -0.8892    1.4682 N   0  0  0  0  0  0  0  0  0  0  0  0
    3.9899    0.2488    1.0360 C   0  0  0  0  0  0  0  0  0  0  0  0
    9.0877    0.3312    2.4209 C   0  0  0  0  0  0  0  0  0  0  0  0
    3.6656   -1.8433    2.3142 C   0  0  0  0  0  0  0  0  0  0  0  0
    2.8639   -2.5170    2.9415 O   0  0  0  0  0  0  0  0  0  0  0  0
    4.9229   -2.1320    2.5412 N   0  0  0  0  0  0  0  0  0  0  0  0
    5.9678   -1.6449    1.8347 C   0  0  0  0  0  0  0  0  0  0  0  0
    6.9784   -0.9280    2.4826 C   0  0  0  0  0  0  0  0  0  0  0  0
    8.0539   -0.4161    1.7510 C   0  0  0  0  0  0  0  0  0  0  0  0
    8.1246   -0.6289    0.3709 C   0  0  0  0  0  0  0  0  0  0  0  0
    7.1257   -1.3631   -0.2753 C   0  0  0  0  0  0  0  0  0  0  0  0
    6.0535   -1.8786    0.4587 C   0  0  0  0  0  0  0  0  0  0  0  0
    9.9176    0.9317    2.9602 N   0  0  0  0  0  0  0  0  0  0  0  0
   -4.1000    1.9084   -2.4831 H   0  0  0  0  0  0  0  0  0  0  0  0
   -6.4477    2.5974   -1.2528 H   0  0  0  0  0  0  0  0  0  0  0  0
   -7.2289    4.4008    0.1617 H   0  0  0  0  0  0  0  0  0  0  0  0
   -5.6701    5.5633    1.6233 H   0  0  0  0  0  0  0  0  0  0  0  0
   -3.3265    4.9217    1.6354 H   0  0  0  0  0  0  0  0  0  0  0  0
   -2.5454    3.1248    0.2106 H   0  0  0  0  0  0  0  0  0  0  0  0
   -5.3574    0.6010    0.7316 H   0  0  0  0  0  0  0  0  0  0  0  0
   -6.8930   -1.2600    0.9781 H   0  0  0  0  0  0  0  0  0  0  0  0
   -7.4381   -2.6520   -0.9381 H   0  0  0  0  0  0  0  0  0  0  0  0
   -6.4382   -2.1758   -3.1019 H   0  0  0  0  0  0  0  0  0  0  0  0
   -4.9028   -0.3145   -3.3474 H   0  0  0  0  0  0  0  0  0  0  0  0
   -1.8939    1.7551   -1.4797 H   0  0  0  0  0  0  0  0  0  0  0  0
   -2.4492    0.2208   -2.1408 H   0  0  0  0  0  0  0  0  0  0  0  0
   -2.7565   -0.7579   -0.0428 H   0  0  0  0  0  0  0  0  0  0  0  0
   -2.7764    0.8067    0.7537 H   0  0  0  0  0  0  0  0  0  0  0  0
   -0.5276    1.0693    0.1855 H   0  0  0  0  0  0  0  0  0  0  0  0
   -0.2769   -0.3754   -1.6585 H   0  0  0  0  0  0  0  0  0  0  0  0
   -0.3399   -1.7162   -0.5504 H   0  0  0  0  0  0  0  0  0  0  0  0
    2.0170   -1.1155   -1.0378 H   0  0  0  0  0  0  0  0  0  0  0  0
    1.7109    0.4972   -0.4585 H   0  0  0  0  0  0  0  0  0  0  0  0
    1.4902   -2.0114    1.1839 H   0  0  0  0  0  0  0  0  0  0  0  0
    1.0469   -0.4465    3.0846 H   0  0  0  0  0  0  0  0  0  0  0  0
    1.1616    0.8954    1.9817 H   0  0  0  0  0  0  0  0  0  0  0  0
   -0.9457   -1.2772    1.8820 H   0  0  0  0  0  0  0  0  0  0  0  0
   -1.1780    0.3900    2.3472 H   0  0  0  0  0  0  0  0  0  0  0  0
    3.4185    0.8735    0.3817 H   0  0  0  0  0  0  0  0  0  0  0  0
    4.8722   -0.0983    0.5400 H   0  0  0  0  0  0  0  0  0  0  0  0
    4.2853    0.8154    1.8942 H   0  0  0  0  0  0  0  0  0  0  0  0
    5.1220   -2.7498    3.2815 H   0  0  0  0  0  0  0  0  0  0  0  0
    6.9302   -0.7766    3.5023 H   0  0  0  0  0  0  0  0  0  0  0  0
    8.9142   -0.2440   -0.1707 H   0  0  0  0  0  0  0  0  0  0  0  0
    7.1798   -1.5244   -1.2932 H   0  0  0  0  0  0  0  0  0  0  0  0
    5.3237   -2.4328   -0.0159 H   0  0  0  0  0  0  0  0  0  0  0  0
  1  2  1  0
  2  3  2  0
  2  7  1  0
  7  6  2  0
  6  5  1  0
  5  4  2  0
  4  3  1  0
  8  9  2  0
  8 13  1  0
 13 12  2  0
 12 11  1  0
 11 10  2  0
 10  9  1  0
  1  8  1  0
  1 14  1  0
 14 15  1  0
 16 17  1  0
 16 21  1  0
 21 20  1  0
 20 19  1  0
 19 18  1  0
 18 17  1  0
 15 16  1  0
 19 22  1  0
 22 23  1  0
 24 34  3  0
 22 25  1  0
 25 26  2  0
 25 27  1  0
 28 29  2  0
 28 33  1  0
 33 32  2  0
 32 31  1  0
 31 30  2  0
 30 29  1  0
 27 28  1  0
 30 24  1  0
  1 35  1  0
  3 36  1  0
  4 37  1  0
  5 38  1  0
  6 39  1  0
  7 40  1  0
  9 41  1  0
 10 42  1  0
 11 43  1  0
 12 44  1  0
 13 45  1  0
 14 46  1  0
 14 47  1  0
 15 48  1  0
 15 49  1  0
 16 50  1  1
 17 51  1  0
 17 52  1  0
 18 53  1  0
 18 54  1  0
 19 55  1  6
 20 56  1  0
 20 57  1  0
 21 58  1  0
 21 59  1  0
 23 60  1  0
 23 61  1  0
 23 62  1  0
 27 63  1  0
 29 64  1  0
 31 65  1  0
 32 66  1  0
 33 67  1  0
M  CHG  1  16   1
M  END
>  <_TriposChargeType>  (49) 
GASTEIGER

>  <Activity>  (49) 
5.31

$$$$
CCR5_58
     RDKit          3D

 76 79  0  0  0  0  0  0  0  0999 V2000
   -4.0023    1.4131   -1.5055 C   0  0  2  0  0  0  0  0  0  0  0  0
   -4.4159    2.6751   -0.7171 C   0  0  0  0  0  0  0  0  0  0  0  0
   -5.7410    3.1113   -0.8485 C   0  0  0  0  0  0  0  0  0  0  0  0
   -6.2088    4.2236   -0.1436 C   0  0  0  0  0  0  0  0  0  0  0  0
   -5.3459    4.9279    0.6986 C   0  0  0  0  0  0  0  0  0  0  0  0
   -4.0162    4.5182    0.8207 C   0  0  0  0  0  0  0  0  0  0  0  0
   -3.5521    3.4064    0.1109 C   0  0  0  0  0  0  0  0  0  0  0  0
   -4.9962    0.2595   -1.2781 C   0  0  0  0  0  0  0  0  0  0  0  0
   -5.6321    0.0875   -0.0419 C   0  0  0  0  0  0  0  0  0  0  0  0
   -6.5378   -0.9597    0.1498 C   0  0  0  0  0  0  0  0  0  0  0  0
   -6.8124   -1.8479   -0.8927 C   0  0  0  0  0  0  0  0  0  0  0  0
   -6.1778   -1.6863   -2.1265 C   0  0  0  0  0  0  0  0  0  0  0  0
   -5.2728   -0.6380   -2.3164 C   0  0  0  0  0  0  0  0  0  0  0  0
   -2.5586    0.8756   -1.2791 C   0  0  0  0  0  0  0  0  0  0  0  0
   -2.3622    0.2128    0.1144 C   0  0  0  0  0  0  0  0  0  0  0  0
   -0.9334    0.1159    0.5172 N   0  0  2  0  0  4  0  0  0  0  0  0
   -0.0585   -0.6537   -0.4028 C   0  0  0  0  0  0  0  0  0  0  0  0
    1.4294   -0.4938   -0.0001 C   0  0  0  0  0  0  0  0  0  0  0  0
    1.6604   -0.9330    1.4656 C   0  0  2  0  0  0  0  0  0  0  0  0
    0.7026   -0.1327    2.3873 C   0  0  0  0  0  0  0  0  0  0  0  0
   -0.7673   -0.3140    1.9299 C   0  0  0  0  0  0  0  0  0  0  0  0
    3.1044   -0.8143    1.7476 N   0  0  0  0  0  0  0  0  0  0  0  0
    3.7146    0.4433    2.2080 C   0  0  0  0  0  0  0  0  0  0  0  0
    3.7968    0.5223    3.7551 C   0  0  0  0  0  0  0  0  0  0  0  0
    3.8877   -1.9016    1.4783 C   0  0  0  0  0  0  0  0  0  0  0  0
    3.4027   -2.9449    1.0702 O   0  0  0  0  0  0  0  0  0  0  0  0
    5.3935   -1.9185    1.6249 C   0  0  0  0  0  0  0  0  0  0  0  0
    6.0742   -1.1449    0.4857 C   0  0  0  0  0  0  0  0  0  0  0  0
    7.1804   -0.3264    0.7433 C   0  0  0  0  0  0  0  0  0  0  0  0
    7.7625    0.4193   -0.2859 C   0  0  0  0  0  0  0  0  0  0  0  0
    7.2458    0.3511   -1.5822 C   0  0  0  0  0  0  0  0  0  0  0  0
    6.1685   -0.4969   -1.8518 C   0  0  0  0  0  0  0  0  0  0  0  0
    5.5896   -1.2462   -0.8236 C   0  0  0  0  0  0  0  0  0  0  0  0
    7.9898    1.2938   -2.8908 S   0  0  0  0  0  6  0  0  0  0  0  0
    7.0206    1.4841   -3.9520 O   0  0  0  0  0  0  0  0  0  0  0  0
    8.6653    2.4449   -2.3247 O   0  0  0  0  0  0  0  0  0  0  0  0
   -7.9484   -3.1597   -0.6532 Cl  0  0  0  0  0  0  0  0  0  0  0  0
    9.2344    0.1253   -3.4588 C   0  0  0  0  0  0  0  0  0  0  0  0
   -4.0197    1.7622   -2.5168 H   0  0  0  0  0  0  0  0  0  0  0  0
   -6.3825    2.6024   -1.4766 H   0  0  0  0  0  0  0  0  0  0  0  0
   -7.1908    4.5241   -0.2453 H   0  0  0  0  0  0  0  0  0  0  0  0
   -5.6883    5.7455    1.2272 H   0  0  0  0  0  0  0  0  0  0  0  0
   -3.3731    5.0385    1.4377 H   0  0  0  0  0  0  0  0  0  0  0  0
   -2.5641    3.1212    0.1972 H   0  0  0  0  0  0  0  0  0  0  0  0
   -5.4304    0.7387    0.7329 H   0  0  0  0  0  0  0  0  0  0  0  0
   -7.0043   -1.0768    1.0629 H   0  0  0  0  0  0  0  0  0  0  0  0
   -6.3773   -2.3414   -2.8986 H   0  0  0  0  0  0  0  0  0  0  0  0
   -4.8048   -0.5247   -3.2292 H   0  0  0  0  0  0  0  0  0  0  0  0
   -1.8556    1.6732   -1.3995 H   0  0  0  0  0  0  0  0  0  0  0  0
   -2.3934    0.1129   -2.0112 H   0  0  0  0  0  0  0  0  0  0  0  0
   -2.8025   -0.7624    0.1139 H   0  0  0  0  0  0  0  0  0  0  0  0
   -2.8463    0.8432    0.8308 H   0  0  0  0  0  0  0  0  0  0  0  0
   -0.5980    1.0760    0.4393 H   0  0  0  0  0  0  0  0  0  0  0  0
   -0.2038   -0.3231   -1.4100 H   0  0  0  0  0  0  0  0  0  0  0  0
   -0.3200   -1.6890   -0.3341 H   0  0  0  0  0  0  0  0  0  0  0  0
    2.0493   -1.0687   -0.6559 H   0  0  0  0  0  0  0  0  0  0  0  0
    1.6886    0.5410   -0.0834 H   0  0  0  0  0  0  0  0  0  0  0  0
    1.4141   -1.9570    1.6542 H   0  0  0  0  0  0  0  0  0  0  0  0
    0.8142   -0.4549    3.4015 H   0  0  0  0  0  0  0  0  0  0  0  0
    0.9545    0.9052    2.3220 H   0  0  0  0  0  0  0  0  0  0  0  0
   -1.0620   -1.3368    2.0392 H   0  0  0  0  0  0  0  0  0  0  0  0
   -1.3921    0.2981    2.5462 H   0  0  0  0  0  0  0  0  0  0  0  0
    3.1568    1.2754    1.8320 H   0  0  0  0  0  0  0  0  0  0  0  0
    4.7154    0.4727    1.8305 H   0  0  0  0  0  0  0  0  0  0  0  0
    2.8097    0.4952    4.1671 H   0  0  0  0  0  0  0  0  0  0  0  0
    4.2985    1.4188    4.0541 H   0  0  0  0  0  0  0  0  0  0  0  0
    4.3537   -0.3149    4.1209 H   0  0  0  0  0  0  0  0  0  0  0  0
    5.7470   -2.9283    1.6424 H   0  0  0  0  0  0  0  0  0  0  0  0
    5.6423   -1.4372    2.5476 H   0  0  0  0  0  0  0  0  0  0  0  0
    7.5682   -0.2733    1.6982 H   0  0  0  0  0  0  0  0  0  0  0  0
    8.5764    1.0220   -0.0876 H   0  0  0  0  0  0  0  0  0  0  0  0
    5.7992   -0.5702   -2.8127 H   0  0  0  0  0  0  0  0  0  0  0  0
    4.8003   -1.8778   -1.0310 H   0  0  0  0  0  0  0  0  0  0  0  0
    9.7848    0.5556   -4.2692 H   0  0  0  0  0  0  0  0  0  0  0  0
    8.7710   -0.7878   -3.7693 H   0  0  0  0  0  0  0  0  0  0  0  0
    9.9054   -0.0926   -2.6543 H   0  0  0  0  0  0  0  0  0  0  0  0
  1  2  1  0
  2  3  2  0
  2  7  1  0
  7  6  2  0
  6  5  1  0
  5  4  2  0
  4  3  1  0
  8  9  2  0
  8 13  1  0
 13 12  2  0
 12 11  1  0
 11 10  2  0
 10  9  1  0
  1  8  1  0
  1 14  1  0
 14 15  1  0
 16 17  1  0
 16 21  1  0
 21 20  1  0
 20 19  1  0
 19 18  1  0
 18 17  1  0
 15 16  1  0
 19 22  1  0
 22 23  1  0
 23 24  1  0
 22 25  1  0
 25 26  2  0
 25 27  1  0
 28 29  2  0
 28 33  1  0
 33 32  2  0
 32 31  1  0
 31 30  2  0
 30 29  1  0
 27 28  1  0
 34 35  2  0
 34 36  2  0
 31 34  1  0
 11 37  1  0
 34 38  1  0
  1 39  1  6
  3 40  1  0
  4 41  1  0
  5 42  1  0
  6 43  1  0
  7 44  1  0
  9 45  1  0
 10 46  1  0
 12 47  1  0
 13 48  1  0
 14 49  1  0
 14 50  1  0
 15 51  1  0
 15 52  1  0
 16 53  1  1
 17 54  1  0
 17 55  1  0
 18 56  1  0
 18 57  1  0
 19 58  1  6
 20 59  1  0
 20 60  1  0
 21 61  1  0
 21 62  1  0
 23 63  1  0
 23 64  1  0
 24 65  1  0
 24 66  1  0
 24 67  1  0
 27 68  1  0
 27 69  1  0
 29 70  1  0
 30 71  1  0
 32 72  1  0
 33 73  1  0
 38 74  1  0
 38 75  1  0
 38 76  1  0
M  CHG  1  16   1
M  END
>  <_TriposChargeType>  (50) 
GASTEIGER

>  <Activity>  (50) 
8.07

$$$$
CCR5_63
     RDKit          3D

 82 85  0  0  0  0  0  0  0  0999 V2000
   -3.9998    1.4019   -1.5091 C   0  0  2  0  0  0  0  0  0  0  0  0
   -4.4081    2.6651   -0.7199 C   0  0  0  0  0  0  0  0  0  0  0  0
   -5.7349    3.0996   -0.8394 C   0  0  0  0  0  0  0  0  0  0  0  0
   -6.1975    4.2117   -0.1307 C   0  0  0  0  0  0  0  0  0  0  0  0
   -5.3273    4.9182    0.7022 C   0  0  0  0  0  0  0  0  0  0  0  0
   -3.9956    4.5112    0.8109 C   0  0  0  0  0  0  0  0  0  0  0  0
   -3.5369    3.3995    0.0975 C   0  0  0  0  0  0  0  0  0  0  0  0
   -5.0057    0.2578   -1.2860 C   0  0  0  0  0  0  0  0  0  0  0  0
   -5.6207    0.0715   -0.0417 C   0  0  0  0  0  0  0  0  0  0  0  0
   -6.5274   -0.9744    0.1514 C   0  0  0  0  0  0  0  0  0  0  0  0
   -6.8276   -1.8493   -0.8959 C   0  0  0  0  0  0  0  0  0  0  0  0
   -6.2440   -1.6457   -2.1498 C   0  0  0  0  0  0  0  0  0  0  0  0
   -5.3197   -0.6137   -2.3356 C   0  0  0  0  0  0  0  0  0  0  0  0
   -2.5599    0.8551   -1.2804 C   0  0  0  0  0  0  0  0  0  0  0  0
   -2.3621    0.2058    0.1191 C   0  0  0  0  0  0  0  0  0  0  0  0
   -0.9329    0.1112    0.5208 N   0  0  2  0  0  4  0  0  0  0  0  0
   -0.0556   -0.6590   -0.3963 C   0  0  0  0  0  0  0  0  0  0  0  0
    1.4319   -0.4914    0.0052 C   0  0  0  0  0  0  0  0  0  0  0  0
    1.6647   -0.9246    1.4724 C   0  0  2  0  0  0  0  0  0  0  0  0
    0.7052   -0.1230    2.3912 C   0  0  0  0  0  0  0  0  0  0  0  0
   -0.7644   -0.3108    1.9356 C   0  0  0  0  0  0  0  0  0  0  0  0
    3.1083   -0.8029    1.7546 N   0  0  0  0  0  0  0  0  0  0  0  0
    3.7158    0.4548    2.2182 C   0  0  0  0  0  0  0  0  0  0  0  0
    3.7938    0.5324    3.7656 C   0  0  0  0  0  0  0  0  0  0  0  0
    3.8938   -1.8881    1.4835 C   0  0  0  0  0  0  0  0  0  0  0  0
    3.4113   -2.9300    1.0686 O   0  0  0  0  0  0  0  0  0  0  0  0
    5.3988   -1.9048    1.6377 C   0  0  0  0  0  0  0  0  0  0  0  0
    6.0871   -1.1269    0.5060 C   0  0  0  0  0  0  0  0  0  0  0  0
    7.1891   -0.3064    0.7749 C   0  0  0  0  0  0  0  0  0  0  0  0
    7.7790    0.4420   -0.2477 C   0  0  0  0  0  0  0  0  0  0  0  0
    7.2745    0.3744   -1.5489 C   0  0  0  0  0  0  0  0  0  0  0  0
    6.2010   -0.4748   -1.8294 C   0  0  0  0  0  0  0  0  0  0  0  0
    5.6138   -1.2265   -0.8076 C   0  0  0  0  0  0  0  0  0  0  0  0
    8.0298    1.3197   -2.8491 S   0  0  0  0  0  6  0  0  0  0  0  0
    7.0671    1.5197   -3.9144 O   0  0  0  0  0  0  0  0  0  0  0  0
    8.7080    2.4648   -2.2741 O   0  0  0  0  0  0  0  0  0  0  0  0
   -7.7889   -2.9938   -0.6550 C   0  0  0  0  0  0  0  0  0  0  0  0
   -8.9480   -2.7171   -0.3968 O   0  0  0  0  0  0  0  0  0  0  0  0
   -7.4484   -4.2923   -0.6905 O   0  0  0  0  0  0  0  0  0  0  0  0
    9.2717    0.1478   -3.4162 C   0  0  0  0  0  0  0  0  0  0  0  0
   -6.0402   -4.5584   -0.8366 C   0  0  0  0  0  0  0  0  0  0  0  0
   -4.0087    1.7501   -2.5208 H   0  0  0  0  0  0  0  0  0  0  0  0
   -6.3815    2.5897   -1.4614 H   0  0  0  0  0  0  0  0  0  0  0  0
   -7.1810    4.5105   -0.2228 H   0  0  0  0  0  0  0  0  0  0  0  0
   -5.6658    5.7354    1.2338 H   0  0  0  0  0  0  0  0  0  0  0  0
   -3.3471    5.0334    1.4206 H   0  0  0  0  0  0  0  0  0  0  0  0
   -2.5473    3.1167    0.1733 H   0  0  0  0  0  0  0  0  0  0  0  0
   -5.4028    0.7111    0.7383 H   0  0  0  0  0  0  0  0  0  0  0  0
   -6.9772   -1.1011    1.0716 H   0  0  0  0  0  0  0  0  0  0  0  0
   -6.4963   -2.2590   -2.9405 H   0  0  0  0  0  0  0  0  0  0  0  0
   -4.8650   -0.4932   -3.2542 H   0  0  0  0  0  0  0  0  0  0  0  0
   -1.8510    1.6456   -1.4124 H   0  0  0  0  0  0  0  0  0  0  0  0
   -2.4047    0.0822   -2.0039 H   0  0  0  0  0  0  0  0  0  0  0  0
   -2.8035   -0.7689    0.1288 H   0  0  0  0  0  0  0  0  0  0  0  0
   -2.8443    0.8438    0.8299 H   0  0  0  0  0  0  0  0  0  0  0  0
   -0.5998    1.0716    0.4372 H   0  0  0  0  0  0  0  0  0  0  0  0
   -0.2026   -0.3333   -1.4049 H   0  0  0  0  0  0  0  0  0  0  0  0
   -0.3130   -1.6950   -0.3231 H   0  0  0  0  0  0  0  0  0  0  0  0
    2.0540   -1.0661   -0.6487 H   0  0  0  0  0  0  0  0  0  0  0  0
    1.6870    0.5441   -0.0820 H   0  0  0  0  0  0  0  0  0  0  0  0
    1.4210   -1.9486    1.6644 H   0  0  0  0  0  0  0  0  0  0  0  0
    0.8185   -0.4403    3.4068 H   0  0  0  0  0  0  0  0  0  0  0  0
    0.9540    0.9153    2.3211 H   0  0  0  0  0  0  0  0  0  0  0  0
   -1.0562   -1.3338    2.0505 H   0  0  0  0  0  0  0  0  0  0  0  0
   -1.3904    0.3029    2.5491 H   0  0  0  0  0  0  0  0  0  0  0  0
    3.1582    1.2867    1.8416 H   0  0  0  0  0  0  0  0  0  0  0  0
    4.7176    0.4855    1.8436 H   0  0  0  0  0  0  0  0  0  0  0  0
    2.8056    0.5040    4.1749 H   0  0  0  0  0  0  0  0  0  0  0  0
    4.2939    1.4291    4.0668 H   0  0  0  0  0  0  0  0  0  0  0  0
    4.3505   -0.3046    4.1321 H   0  0  0  0  0  0  0  0  0  0  0  0
    5.7524   -2.9145    1.6535 H   0  0  0  0  0  0  0  0  0  0  0  0
    5.6416   -1.4260    2.5633 H   0  0  0  0  0  0  0  0  0  0  0  0
    7.5680   -0.2538    1.7334 H   0  0  0  0  0  0  0  0  0  0  0  0
    8.5896    1.0463   -0.0410 H   0  0  0  0  0  0  0  0  0  0  0  0
    5.8406   -0.5473   -2.7937 H   0  0  0  0  0  0  0  0  0  0  0  0
    4.8269   -1.8585   -1.0229 H   0  0  0  0  0  0  0  0  0  0  0  0
    9.8284    0.5792   -4.2217 H   0  0  0  0  0  0  0  0  0  0  0  0
    8.8055   -0.7615   -3.7334 H   0  0  0  0  0  0  0  0  0  0  0  0
    9.9374   -0.0772   -2.6093 H   0  0  0  0  0  0  0  0  0  0  0  0
   -5.8764   -5.6156   -0.8537 H   0  0  0  0  0  0  0  0  0  0  0  0
   -5.4934   -4.1118   -0.0325 H   0  0  0  0  0  0  0  0  0  0  0  0
   -5.6957   -4.1341   -1.7565 H   0  0  0  0  0  0  0  0  0  0  0  0
  1  2  1  0
  2  3  2  0
  2  7  1  0
  7  6  2  0
  6  5  1  0
  5  4  2  0
  4  3  1  0
  8  9  2  0
  8 13  1  0
 13 12  2  0
 12 11  1  0
 11 10  2  0
 10  9  1  0
  1  8  1  0
  1 14  1  0
 14 15  1  0
 16 17  1  0
 16 21  1  0
 21 20  1  0
 20 19  1  0
 19 18  1  0
 18 17  1  0
 15 16  1  0
 19 22  1  0
 22 23  1  0
 23 24  1  0
 22 25  1  0
 25 26  2  0
 25 27  1  0
 28 29  2  0
 28 33  1  0
 33 32  2  0
 32 31  1  0
 31 30  2  0
 30 29  1  0
 27 28  1  0
 34 35  2  0
 34 36  2  0
 31 34  1  0
 37 38  2  0
 37 39  1  0
 11 37  1  0
 34 40  1  0
 39 41  1  0
  1 42  1  6
  3 43  1  0
  4 44  1  0
  5 45  1  0
  6 46  1  0
  7 47  1  0
  9 48  1  0
 10 49  1  0
 12 50  1  0
 13 51  1  0
 14 52  1  0
 14 53  1  0
 15 54  1  0
 15 55  1  0
 16 56  1  1
 17 57  1  0
 17 58  1  0
 18 59  1  0
 18 60  1  0
 19 61  1  6
 20 62  1  0
 20 63  1  0
 21 64  1  0
 21 65  1  0
 23 66  1  0
 23 67  1  0
 24 68  1  0
 24 69  1  0
 24 70  1  0
 27 71  1  0
 27 72  1  0
 29 73  1  0
 30 74  1  0
 32 75  1  0
 33 76  1  0
 40 77  1  0
 40 78  1  0
 40 79  1  0
 41 80  1  0
 41 81  1  0
 41 82  1  0
M  CHG  1  16   1
M  END
>  <_TriposChargeType>  (51) 
GASTEIGER

>  <Activity>  (51) 
8.15

$$$$
CCR5_33
     RDKit          3D

 71 74  0  0  0  0  0  0  0  0999 V2000
   -4.0018    1.4117   -1.5048 C   0  0  0  0  0  0  0  0  0  0  0  0
   -4.4152    2.6744   -0.7173 C   0  0  0  0  0  0  0  0  0  0  0  0
   -5.7403    3.1105   -0.8487 C   0  0  0  0  0  0  0  0  0  0  0  0
   -6.2076    4.2238   -0.1450 C   0  0  0  0  0  0  0  0  0  0  0  0
   -5.3443    4.9290    0.6961 C   0  0  0  0  0  0  0  0  0  0  0  0
   -4.0147    4.5192    0.8183 C   0  0  0  0  0  0  0  0  0  0  0  0
   -3.5510    3.4065    0.1097 C   0  0  0  0  0  0  0  0  0  0  0  0
   -4.9960    0.2582   -1.2775 C   0  0  0  0  0  0  0  0  0  0  0  0
   -5.6333    0.0869   -0.0421 C   0  0  0  0  0  0  0  0  0  0  0  0
   -6.5402   -0.9593    0.1494 C   0  0  0  0  0  0  0  0  0  0  0  0
   -6.8145   -1.8478   -0.8934 C   0  0  0  0  0  0  0  0  0  0  0  0
   -6.1777   -1.6876   -2.1267 C   0  0  0  0  0  0  0  0  0  0  0  0
   -5.2716   -0.6399   -2.3155 C   0  0  0  0  0  0  0  0  0  0  0  0
   -2.5583    0.8741   -1.2778 C   0  0  0  0  0  0  0  0  0  0  0  0
   -2.3623    0.2130    0.1165 C   0  0  0  0  0  0  0  0  0  0  0  0
   -0.9334    0.1166    0.5194 N   0  0  2  0  0  4  0  0  0  0  0  0
   -0.0589   -0.6541   -0.3998 C   0  0  0  0  0  0  0  0  0  0  0  0
    1.4289   -0.4937    0.0026 C   0  0  0  0  0  0  0  0  0  0  0  0
    1.6601   -0.9324    1.4684 C   0  0  2  0  0  0  0  0  0  0  0  0
    0.7024   -0.1315    2.3899 C   0  0  0  0  0  0  0  0  0  0  0  0
   -0.7675   -0.3122    1.9324 C   0  0  0  0  0  0  0  0  0  0  0  0
    3.1043   -0.8149    1.7496 N   0  0  0  0  0  0  0  0  0  0  0  0
    3.7150    0.4403    2.2161 C   0  0  0  0  0  0  0  0  0  0  0  0
    3.7972    0.5144    3.7634 C   0  0  0  0  0  0  0  0  0  0  0  0
    3.8869   -1.9007    1.4728 C   0  0  0  0  0  0  0  0  0  0  0  0
    3.4017   -2.9397    1.0540 O   0  0  0  0  0  0  0  0  0  0  0  0
    5.3920   -1.9219    1.6228 C   0  0  0  0  0  0  0  0  0  0  0  0
    6.0770   -1.1429    0.4898 C   0  0  0  0  0  0  0  0  0  0  0  0
    7.1846   -0.3289    0.7557 C   0  0  0  0  0  0  0  0  0  0  0  0
    7.7744    0.4194   -0.2674 C   0  0  0  0  0  0  0  0  0  0  0  0
    7.2665    0.3506   -1.5675 C   0  0  0  0  0  0  0  0  0  0  0  0
    6.1800   -0.4835   -1.8447 C   0  0  0  0  0  0  0  0  0  0  0  0
    5.5947   -1.2348   -0.8213 C   0  0  0  0  0  0  0  0  0  0  0  0
    7.8618    1.1371   -2.6181 C   0  0  0  0  0  0  0  0  0  0  0  0
    8.3400    1.7696   -3.4614 N   0  0  0  0  0  0  0  0  0  0  0  0
   -4.0191    1.7604   -2.5163 H   0  0  0  0  0  0  0  0  0  0  0  0
   -6.3821    2.6009   -1.4759 H   0  0  0  0  0  0  0  0  0  0  0  0
   -7.1896    4.5244   -0.2468 H   0  0  0  0  0  0  0  0  0  0  0  0
   -5.6864    5.7473    1.2237 H   0  0  0  0  0  0  0  0  0  0  0  0
   -3.3714    5.0401    1.4346 H   0  0  0  0  0  0  0  0  0  0  0  0
   -2.5630    3.1212    0.1962 H   0  0  0  0  0  0  0  0  0  0  0  0
   -5.4317    0.7381    0.7327 H   0  0  0  0  0  0  0  0  0  0  0  0
   -7.0077   -1.0756    1.0621 H   0  0  0  0  0  0  0  0  0  0  0  0
   -7.4851   -2.6196   -0.7532 H   0  0  0  0  0  0  0  0  0  0  0  0
   -6.3764   -2.3431   -2.8987 H   0  0  0  0  0  0  0  0  0  0  0  0
   -4.8020   -0.5276   -3.2276 H   0  0  0  0  0  0  0  0  0  0  0  0
   -1.8551    1.6714   -1.3991 H   0  0  0  0  0  0  0  0  0  0  0  0
   -2.3932    0.1106   -2.0090 H   0  0  0  0  0  0  0  0  0  0  0  0
   -2.8026   -0.7622    0.1171 H   0  0  0  0  0  0  0  0  0  0  0  0
   -2.8466    0.8441    0.8321 H   0  0  0  0  0  0  0  0  0  0  0  0
   -0.5978    1.0766    0.4407 H   0  0  0  0  0  0  0  0  0  0  0  0
   -0.2043   -0.3246   -1.4074 H   0  0  0  0  0  0  0  0  0  0  0  0
   -0.3204   -1.6893   -0.3300 H   0  0  0  0  0  0  0  0  0  0  0  0
    2.0489   -1.0687   -0.6531 H   0  0  0  0  0  0  0  0  0  0  0  0
    1.6878    0.5411   -0.0811 H   0  0  0  0  0  0  0  0  0  0  0  0
    1.4134   -1.9562    1.6581 H   0  0  0  0  0  0  0  0  0  0  0  0
    0.8137   -0.4535    3.4042 H   0  0  0  0  0  0  0  0  0  0  0  0
    0.9548    0.9062    2.3244 H   0  0  0  0  0  0  0  0  0  0  0  0
   -1.0629   -1.3347    2.0426 H   0  0  0  0  0  0  0  0  0  0  0  0
   -1.3919    0.3009    2.5481 H   0  0  0  0  0  0  0  0  0  0  0  0
    3.1581    1.2743    1.8429 H   0  0  0  0  0  0  0  0  0  0  0  0
    4.7162    0.4694    1.8397 H   0  0  0  0  0  0  0  0  0  0  0  0
    2.8100    0.4875    4.1752 H   0  0  0  0  0  0  0  0  0  0  0  0
    4.3003    1.4092    4.0652 H   0  0  0  0  0  0  0  0  0  0  0  0
    4.3528   -0.3248    4.1267 H   0  0  0  0  0  0  0  0  0  0  0  0
    5.7432   -2.9325    1.6349 H   0  0  0  0  0  0  0  0  0  0  0  0
    5.6398   -1.4468    2.5490 H   0  0  0  0  0  0  0  0  0  0  0  0
    7.5680   -0.2810    1.7127 H   0  0  0  0  0  0  0  0  0  0  0  0
    8.5858    1.0233   -0.0623 H   0  0  0  0  0  0  0  0  0  0  0  0
    5.8094   -0.5449   -2.8059 H   0  0  0  0  0  0  0  0  0  0  0  0
    4.8023   -1.8610   -1.0336 H   0  0  0  0  0  0  0  0  0  0  0  0
  1  2  1  0
  2  3  2  0
  2  7  1  0
  7  6  2  0
  6  5  1  0
  5  4  2  0
  4  3  1  0
  8  9  2  0
  8 13  1  0
 13 12  2  0
 12 11  1  0
 11 10  2  0
 10  9  1  0
  1  8  1  0
  1 14  1  0
 14 15  1  0
 16 17  1  0
 16 21  1  0
 21 20  1  0
 20 19  1  0
 19 18  1  0
 18 17  1  0
 15 16  1  0
 19 22  1  0
 22 23  1  0
 23 24  1  0
 22 25  1  0
 25 26  2  0
 25 27  1  0
 28 29  2  0
 28 33  1  0
 33 32  2  0
 32 31  1  0
 31 30  2  0
 30 29  1  0
 27 28  1  0
 34 35  3  0
 31 34  1  0
  1 36  1  0
  3 37  1  0
  4 38  1  0
  5 39  1  0
  6 40  1  0
  7 41  1  0
  9 42  1  0
 10 43  1  0
 11 44  1  0
 12 45  1  0
 13 46  1  0
 14 47  1  0
 14 48  1  0
 15 49  1  0
 15 50  1  0
 16 51  1  1
 17 52  1  0
 17 53  1  0
 18 54  1  0
 18 55  1  0
 19 56  1  6
 20 57  1  0
 20 58  1  0
 21 59  1  0
 21 60  1  0
 23 61  1  0
 23 62  1  0
 24 63  1  0
 24 64  1  0
 24 65  1  0
 27 66  1  0
 27 67  1  0
 29 68  1  0
 30 69  1  0
 32 70  1  0
 33 71  1  0
M  CHG  1  16   1
M  END
>  <_TriposChargeType>  (52) 
GASTEIGER

>  <Activity>  (52) 
7.18

$$$$
CCR5_13
     RDKit          3D

 67 70  0  0  0  0  0  0  0  0999 V2000
   -3.9950    1.4270   -1.5045 C   0  0  0  0  0  0  0  0  0  0  0  0
   -4.4299    2.6748   -0.7045 C   0  0  0  0  0  0  0  0  0  0  0  0
   -5.7732    3.0643   -0.7897 C   0  0  0  0  0  0  0  0  0  0  0  0
   -6.2582    4.1514   -0.0575 C   0  0  0  0  0  0  0  0  0  0  0  0
   -5.3941    4.8809    0.7617 C   0  0  0  0  0  0  0  0  0  0  0  0
   -4.0453    4.5247    0.8296 C   0  0  0  0  0  0  0  0  0  0  0  0
   -3.5643    3.4388    0.0915 C   0  0  0  0  0  0  0  0  0  0  0  0
   -4.9772    0.2579   -1.3053 C   0  0  0  0  0  0  0  0  0  0  0  0
   -5.6022    0.0433   -0.0705 C   0  0  0  0  0  0  0  0  0  0  0  0
   -6.4970   -1.0174    0.0969 C   0  0  0  0  0  0  0  0  0  0  0  0
   -6.7721   -1.8765   -0.9702 C   0  0  0  0  0  0  0  0  0  0  0  0
   -6.1484   -1.6721   -2.2036 C   0  0  0  0  0  0  0  0  0  0  0  0
   -5.2539   -0.6105   -2.3680 C   0  0  0  0  0  0  0  0  0  0  0  0
   -2.5508    0.8959   -1.2652 C   0  0  0  0  0  0  0  0  0  0  0  0
   -2.3505    0.2740    0.1460 C   0  0  0  0  0  0  0  0  0  0  0  0
   -0.9107    0.1760    0.5083 N   0  0  2  0  0  4  0  0  0  0  0  0
   -0.1360   -0.8143   -0.2814 C   0  0  0  0  0  0  0  0  0  0  0  0
    1.3810   -0.7113    0.0208 C   0  0  0  0  0  0  0  0  0  0  0  0
    1.6567   -0.8831    1.5356 C   0  0  2  0  0  0  0  0  0  0  0  0
    0.8284    0.1906    2.2886 C   0  0  0  0  0  0  0  0  0  0  0  0
   -0.6793    0.0346    1.9684 C   0  0  0  0  0  0  0  0  0  0  0  0
    3.1148   -0.8581    1.7504 N   0  0  0  0  0  0  0  0  0  0  0  0
    3.8345    0.3611    2.1444 C   0  0  0  0  0  0  0  0  0  0  0  0
    8.5596    1.4856    0.4890 F   0  0  0  0  0  0  0  0  0  0  0  0
    3.8066   -1.9910    1.4315 C   0  0  0  0  0  0  0  0  0  0  0  0
    3.2266   -3.0104    1.0933 O   0  0  0  0  0  0  0  0  0  0  0  0
    5.3153   -2.0793    1.4518 C   0  0  0  0  0  0  0  0  0  0  0  0
    5.9380   -1.0364    0.5128 C   0  0  0  0  0  0  0  0  0  0  0  0
    7.0109   -0.2393    0.9287 C   0  0  0  0  0  0  0  0  0  0  0  0
    7.5472    0.7270    0.0736 C   0  0  0  0  0  0  0  0  0  0  0  0
    7.0212    0.8947   -1.2105 C   0  0  0  0  0  0  0  0  0  0  0  0
    5.9616    0.0906   -1.6369 C   0  0  0  0  0  0  0  0  0  0  0  0
    5.4258   -0.8749   -0.7797 C   0  0  0  0  0  0  0  0  0  0  0  0
    7.5243    1.8160   -2.0297 F   0  0  0  0  0  0  0  0  0  0  0  0
   -4.0051    1.7940   -2.5095 H   0  0  0  0  0  0  0  0  0  0  0  0
   -6.4154    2.5394   -1.4037 H   0  0  0  0  0  0  0  0  0  0  0  0
   -7.2539    4.4148   -0.1222 H   0  0  0  0  0  0  0  0  0  0  0  0
   -5.7496    5.6776    1.3130 H   0  0  0  0  0  0  0  0  0  0  0  0
   -3.4007    5.0654    1.4272 H   0  0  0  0  0  0  0  0  0  0  0  0
   -2.5619    3.1971    0.1330 H   0  0  0  0  0  0  0  0  0  0  0  0
   -5.4006    0.6731    0.7218 H   0  0  0  0  0  0  0  0  0  0  0  0
   -6.9550   -1.1662    1.0097 H   0  0  0  0  0  0  0  0  0  0  0  0
   -7.4336   -2.6591   -0.8477 H   0  0  0  0  0  0  0  0  0  0  0  0
   -6.3482   -2.3052   -2.9937 H   0  0  0  0  0  0  0  0  0  0  0  0
   -4.7937   -0.4657   -3.2803 H   0  0  0  0  0  0  0  0  0  0  0  0
   -1.8480    1.6895   -1.4106 H   0  0  0  0  0  0  0  0  0  0  0  0
   -2.3880    0.1118   -1.9748 H   0  0  0  0  0  0  0  0  0  0  0  0
   -2.8011   -0.6958    0.1829 H   0  0  0  0  0  0  0  0  0  0  0  0
   -2.8221    0.9201    0.8567 H   0  0  0  0  0  0  0  0  0  0  0  0
   -0.5326    1.0838    0.2374 H   0  0  0  0  0  0  0  0  0  0  0  0
   -0.3110   -0.6651   -1.3264 H   0  0  0  0  0  0  0  0  0  0  0  0
   -0.4649   -1.7932   -0.0012 H   0  0  0  0  0  0  0  0  0  0  0  0
    1.9161   -1.4527   -0.5350 H   0  0  0  0  0  0  0  0  0  0  0  0
    1.7168    0.2611   -0.2735 H   0  0  0  0  0  0  0  0  0  0  0  0
    1.3386   -1.8241    1.9333 H   0  0  0  0  0  0  0  0  0  0  0  0
    0.9907    0.1072    3.3429 H   0  0  0  0  0  0  0  0  0  0  0  0
    1.1479    1.1584    1.9628 H   0  0  0  0  0  0  0  0  0  0  0  0
   -1.0310   -0.9177    2.3065 H   0  0  0  0  0  0  0  0  0  0  0  0
   -1.2208    0.8036    2.4786 H   0  0  0  0  0  0  0  0  0  0  0  0
    3.1307    1.1389    2.3554 H   0  0  0  0  0  0  0  0  0  0  0  0
    4.5010    0.6661    1.3649 H   0  0  0  0  0  0  0  0  0  0  0  0
    4.4112    0.1607    3.0231 H   0  0  0  0  0  0  0  0  0  0  0  0
    5.6284   -3.0619    1.1666 H   0  0  0  0  0  0  0  0  0  0  0  0
    5.6504   -1.8775    2.4477 H   0  0  0  0  0  0  0  0  0  0  0  0
    7.4083   -0.3661    1.8727 H   0  0  0  0  0  0  0  0  0  0  0  0
    5.5739    0.2095   -2.5859 H   0  0  0  0  0  0  0  0  0  0  0  0
    4.6481   -1.4720   -1.1017 H   0  0  0  0  0  0  0  0  0  0  0  0
  1  2  1  0
  2  3  2  0
  2  7  1  0
  7  6  2  0
  6  5  1  0
  5  4  2  0
  4  3  1  0
  8  9  2  0
  8 13  1  0
 13 12  2  0
 12 11  1  0
 11 10  2  0
 10  9  1  0
  1  8  1  0
  1 14  1  0
 14 15  1  0
 16 17  1  0
 16 21  1  0
 21 20  1  0
 20 19  1  0
 19 18  1  0
 18 17  1  0
 15 16  1  0
 19 22  1  0
 22 23  1  0
 30 24  1  0
 22 25  1  0
 25 26  2  0
 25 27  1  0
 28 29  2  0
 33 28  1  0
 32 33  2  0
 31 32  1  0
 31 30  2  0
 30 29  1  0
 27 28  1  0
 31 34  1  0
  1 35  1  0
  3 36  1  0
  4 37  1  0
  5 38  1  0
  6 39  1  0
  7 40  1  0
  9 41  1  0
 10 42  1  0
 11 43  1  0
 12 44  1  0
 13 45  1  0
 14 46  1  0
 14 47  1  0
 15 48  1  0
 15 49  1  0
 16 50  1  6
 17 51  1  0
 17 52  1  0
 18 53  1  0
 18 54  1  0
 19 55  1  1
 20 56  1  0
 20 57  1  0
 21 58  1  0
 21 59  1  0
 23 60  1  0
 23 61  1  0
 23 62  1  0
 27 63  1  0
 27 64  1  0
 29 65  1  0
 32 66  1  0
 33 67  1  0
M  CHG  1  16   1
M  END
>  <_TriposChargeType>  (53) 
GASTEIGER

>  <Activity>  (53) 
6.16

$$$$
CCR5_19
     RDKit          3D

 67 70  0  0  0  0  0  0  0  0999 V2000
   -3.9955    1.4276   -1.5041 C   0  0  0  0  0  0  0  0  0  0  0  0
   -4.4308    2.6750   -0.7036 C   0  0  0  0  0  0  0  0  0  0  0  0
   -5.7734    3.0662   -0.7923 C   0  0  0  0  0  0  0  0  0  0  0  0
   -6.2591    4.1534   -0.0607 C   0  0  0  0  0  0  0  0  0  0  0  0
   -5.3964    4.8808    0.7619 C   0  0  0  0  0  0  0  0  0  0  0  0
   -4.0484    4.5225    0.8339 C   0  0  0  0  0  0  0  0  0  0  0  0
   -3.5667    3.4368    0.0960 C   0  0  0  0  0  0  0  0  0  0  0  0
   -4.9769    0.2581   -1.3047 C   0  0  0  0  0  0  0  0  0  0  0  0
   -5.6035    0.0444   -0.0704 C   0  0  0  0  0  0  0  0  0  0  0  0
   -6.4977   -1.0168    0.0970 C   0  0  0  0  0  0  0  0  0  0  0  0
   -6.7707   -1.8774   -0.9694 C   0  0  0  0  0  0  0  0  0  0  0  0
   -6.1453   -1.6741   -2.2022 C   0  0  0  0  0  0  0  0  0  0  0  0
   -5.2515   -0.6120   -2.3666 C   0  0  0  0  0  0  0  0  0  0  0  0
   -2.5508    0.8976   -1.2657 C   0  0  0  0  0  0  0  0  0  0  0  0
   -2.3502    0.2725    0.1440 C   0  0  0  0  0  0  0  0  0  0  0  0
   -0.9104    0.1769    0.5067 N   0  0  2  0  0  4  0  0  0  0  0  0
   -0.1333   -0.8105   -0.2846 C   0  0  0  0  0  0  0  0  0  0  0  0
    1.3835   -0.7071    0.0190 C   0  0  0  0  0  0  0  0  0  0  0  0
    1.6572   -0.8803    1.5339 C   0  0  2  0  0  0  0  0  0  0  0  0
    0.8284    0.1933    2.2866 C   0  0  0  0  0  0  0  0  0  0  0  0
   -0.6791    0.0348    1.9667 C   0  0  0  0  0  0  0  0  0  0  0  0
    3.1150   -0.8594    1.7502 N   0  0  0  0  0  0  0  0  0  0  0  0
    3.8405    0.3577    2.1401 C   0  0  0  0  0  0  0  0  0  0  0  0
    7.7168    2.2103   -2.2945 Br  0  0  0  0  0  0  0  0  0  0  0  0
    3.8040   -1.9953    1.4354 C   0  0  0  0  0  0  0  0  0  0  0  0
    3.2219   -3.0144    1.0992 O   0  0  0  0  0  0  0  0  0  0  0  0
    5.3123   -2.0866    1.4590 C   0  0  0  0  0  0  0  0  0  0  0  0
    5.9381   -1.0382    0.5292 C   0  0  0  0  0  0  0  0  0  0  0  0
    7.0038   -0.2382    0.9574 C   0  0  0  0  0  0  0  0  0  0  0  0
    7.5372    0.7376    0.1102 C   0  0  0  0  0  0  0  0  0  0  0  0
    7.0166    0.9108   -1.1751 C   0  0  0  0  0  0  0  0  0  0  0  0
    5.9665    0.1003   -1.6141 C   0  0  0  0  0  0  0  0  0  0  0  0
    5.4337   -0.8746   -0.7660 C   0  0  0  0  0  0  0  0  0  0  0  0
   -4.0062    1.7946   -2.5091 H   0  0  0  0  0  0  0  0  0  0  0  0
   -6.4146    2.5425   -1.4085 H   0  0  0  0  0  0  0  0  0  0  0  0
   -7.2542    4.4184   -0.1283 H   0  0  0  0  0  0  0  0  0  0  0  0
   -5.7524    5.6776    1.3128 H   0  0  0  0  0  0  0  0  0  0  0  0
   -3.4050    5.0614    1.4344 H   0  0  0  0  0  0  0  0  0  0  0  0
   -2.5647    3.1936    0.1403 H   0  0  0  0  0  0  0  0  0  0  0  0
   -5.4035    0.6752    0.7215 H   0  0  0  0  0  0  0  0  0  0  0  0
   -6.9568   -1.1649    1.0093 H   0  0  0  0  0  0  0  0  0  0  0  0
   -7.4318   -2.6603   -0.8469 H   0  0  0  0  0  0  0  0  0  0  0  0
   -6.3434   -2.3084   -2.9918 H   0  0  0  0  0  0  0  0  0  0  0  0
   -4.7901   -0.4680   -3.2784 H   0  0  0  0  0  0  0  0  0  0  0  0
   -1.8489    1.6924   -1.4089 H   0  0  0  0  0  0  0  0  0  0  0  0
   -2.3869    0.1154   -1.9772 H   0  0  0  0  0  0  0  0  0  0  0  0
   -2.7986   -0.6984    0.1780 H   0  0  0  0  0  0  0  0  0  0  0  0
   -2.8238    0.9155    0.8562 H   0  0  0  0  0  0  0  0  0  0  0  0
   -0.5337    1.0857    0.2372 H   0  0  0  0  0  0  0  0  0  0  0  0
   -0.3074   -0.6590   -1.3294 H   0  0  0  0  0  0  0  0  0  0  0  0
   -0.4613   -1.7903   -0.0066 H   0  0  0  0  0  0  0  0  0  0  0  0
    1.9194   -1.4478   -0.5369 H   0  0  0  0  0  0  0  0  0  0  0  0
    1.7195    0.2655   -0.2743 H   0  0  0  0  0  0  0  0  0  0  0  0
    1.3375   -1.8208    1.9315 H   0  0  0  0  0  0  0  0  0  0  0  0
    0.9911    0.1108    3.3409 H   0  0  0  0  0  0  0  0  0  0  0  0
    1.1469    1.1613    1.9605 H   0  0  0  0  0  0  0  0  0  0  0  0
   -1.0290   -0.9184    2.3040 H   0  0  0  0  0  0  0  0  0  0  0  0
   -1.2221    0.8022    2.4777 H   0  0  0  0  0  0  0  0  0  0  0  0
    3.1404    1.1395    2.3486 H   0  0  0  0  0  0  0  0  0  0  0  0
    4.5083    0.6570    1.3595 H   0  0  0  0  0  0  0  0  0  0  0  0
    4.4164    0.1574    3.0194 H   0  0  0  0  0  0  0  0  0  0  0  0
    5.6244   -3.0676    1.1673 H   0  0  0  0  0  0  0  0  0  0  0  0
    5.6457   -1.8931    2.4572 H   0  0  0  0  0  0  0  0  0  0  0  0
    7.3974   -0.3692    1.9024 H   0  0  0  0  0  0  0  0  0  0  0  0
    8.3167    1.3310    0.4345 H   0  0  0  0  0  0  0  0  0  0  0  0
    5.5841    0.2215   -2.5650 H   0  0  0  0  0  0  0  0  0  0  0  0
    4.6640   -1.4772   -1.0967 H   0  0  0  0  0  0  0  0  0  0  0  0
  1  2  1  0
  2  3  2  0
  2  7  1  0
  7  6  2  0
  6  5  1  0
  5  4  2  0
  4  3  1  0
  8  9  2  0
  8 13  1  0
 13 12  2  0
 12 11  1  0
 11 10  2  0
 10  9  1  0
  1  8  1  0
  1 14  1  0
 14 15  1  0
 16 17  1  0
 16 21  1  0
 21 20  1  0
 20 19  1  0
 19 18  1  0
 18 17  1  0
 15 16  1  0
 19 22  1  0
 22 23  1  0
 31 24  1  0
 22 25  1  0
 25 26  2  0
 25 27  1  0
 28 29  2  0
 33 28  1  0
 32 33  2  0
 32 31  1  0
 31 30  2  0
 30 29  1  0
 27 28  1  0
  1 34  1  0
  3 35  1  0
  4 36  1  0
  5 37  1  0
  6 38  1  0
  7 39  1  0
  9 40  1  0
 10 41  1  0
 11 42  1  0
 12 43  1  0
 13 44  1  0
 14 45  1  0
 14 46  1  0
 15 47  1  0
 15 48  1  0
 16 49  1  6
 17 50  1  0
 17 51  1  0
 18 52  1  0
 18 53  1  0
 19 54  1  1
 20 55  1  0
 20 56  1  0
 21 57  1  0
 21 58  1  0
 23 59  1  0
 23 60  1  0
 23 61  1  0
 27 62  1  0
 27 63  1  0
 29 64  1  0
 30 65  1  0
 32 66  1  0
 33 67  1  0
M  CHG  1  16   1
M  END
>  <_TriposChargeType>  (54) 
GASTEIGER

>  <Activity>  (54) 
6.24

$$$$
CCR5_41
     RDKit          3D

 77 80  0  0  0  0  0  0  0  0999 V2000
   -4.0097    1.4127   -1.5051 C   0  0  0  0  0  0  0  0  0  0  0  0
   -4.4091    2.6706   -0.7029 C   0  0  0  0  0  0  0  0  0  0  0  0
   -5.7327    3.1155   -0.8181 C   0  0  0  0  0  0  0  0  0  0  0  0
   -6.1862    4.2271   -0.1027 C   0  0  0  0  0  0  0  0  0  0  0  0
   -5.3102    4.9219    0.7340 C   0  0  0  0  0  0  0  0  0  0  0  0
   -3.9823    4.5026    0.8413 C   0  0  0  0  0  0  0  0  0  0  0  0
   -3.5329    3.3909    0.1220 C   0  0  0  0  0  0  0  0  0  0  0  0
   -5.0087    0.2620   -1.2862 C   0  0  0  0  0  0  0  0  0  0  0  0
   -5.6410    0.0796   -0.0498 C   0  0  0  0  0  0  0  0  0  0  0  0
   -6.5469   -0.9686    0.1358 C   0  0  0  0  0  0  0  0  0  0  0  0
   -6.8271   -1.8463   -0.9146 C   0  0  0  0  0  0  0  0  0  0  0  0
   -6.1984   -1.6724   -2.1502 C   0  0  0  0  0  0  0  0  0  0  0  0
   -5.2928   -0.6233   -2.3329 C   0  0  0  0  0  0  0  0  0  0  0  0
   -2.5696    0.8623   -1.2889 C   0  0  0  0  0  0  0  0  0  0  0  0
   -2.3722    0.1907    0.1003 C   0  0  0  0  0  0  0  0  0  0  0  0
   -0.9430    0.0927    0.5002 N   0  0  2  0  0  4  0  0  0  0  0  0
   -0.0647   -0.6608   -0.4304 C   0  0  0  0  0  0  0  0  0  0  0  0
    1.4231   -0.4805   -0.0363 C   0  0  0  0  0  0  0  0  0  0  0  0
    1.6610   -0.9186    1.4274 C   0  0  2  0  0  0  0  0  0  0  0  0
    0.6996   -0.1326    2.3591 C   0  0  0  0  0  0  0  0  0  0  0  0
   -0.7690   -0.3431    1.9106 C   0  0  0  0  0  0  0  0  0  0  0  0
    3.0998   -0.7825    1.7219 N   0  0  0  0  0  0  0  0  0  0  0  0
    3.7070    0.5021    2.0950 C   0  0  0  0  0  0  0  0  0  0  0  0
    3.9378    0.5381    3.5852 C   0  0  0  0  0  0  0  0  0  0  0  0
    3.8889   -1.8878    1.5813 C   0  0  0  0  0  0  0  0  0  0  0  0
    3.4276   -2.9637    1.2355 O   0  0  0  0  0  0  0  0  0  0  0  0
    5.3823   -1.8733    1.8168 C   0  0  0  0  0  0  0  0  0  0  0  0
    6.1241   -1.1759    0.6672 C   0  0  0  0  0  0  0  0  0  0  0  0
    7.2147   -0.3384    0.9291 C   0  0  0  0  0  0  0  0  0  0  0  0
    7.8451    0.3468   -0.1137 C   0  0  0  0  0  0  0  0  0  0  0  0
    7.3940    0.1961   -1.4277 C   0  0  0  0  0  0  0  0  0  0  0  0
    6.3368   -0.6762   -1.6984 C   0  0  0  0  0  0  0  0  0  0  0  0
    5.7094   -1.3648   -0.6564 C   0  0  0  0  0  0  0  0  0  0  0  0
    8.1911    1.0639   -2.7569 S   0  0  0  0  0  6  0  0  0  0  0  0
    7.2375    1.2673   -3.8297 O   0  0  0  0  0  0  0  0  0  0  0  0
    8.9165    2.1989   -2.2207 O   0  0  0  0  0  0  0  0  0  0  0  0
    5.0801    0.9630    4.1397 C   0  0  0  0  0  0  0  0  0  0  0  0
    9.3830   -0.1770   -3.2829 C   0  0  0  0  0  0  0  0  0  0  0  0
   -4.0318    1.7732   -2.5123 H   0  0  0  0  0  0  0  0  0  0  0  0
   -6.3839    2.6137   -1.4419 H   0  0  0  0  0  0  0  0  0  0  0  0
   -7.1673    4.5342   -0.1926 H   0  0  0  0  0  0  0  0  0  0  0  0
   -5.6417    5.7395    1.2693 H   0  0  0  0  0  0  0  0  0  0  0  0
   -3.3297    5.0157    1.4544 H   0  0  0  0  0  0  0  0  0  0  0  0
   -2.5465    3.0975    0.1989 H   0  0  0  0  0  0  0  0  0  0  0  0
   -5.4365    0.7239    0.7300 H   0  0  0  0  0  0  0  0  0  0  0  0
   -7.0093   -1.0944    1.0498 H   0  0  0  0  0  0  0  0  0  0  0  0
   -7.4960   -2.6202   -0.7783 H   0  0  0  0  0  0  0  0  0  0  0  0
   -6.4027   -2.3188   -2.9283 H   0  0  0  0  0  0  0  0  0  0  0  0
   -4.8298   -0.5004   -3.2470 H   0  0  0  0  0  0  0  0  0  0  0  0
   -1.8607    1.6548   -1.4085 H   0  0  0  0  0  0  0  0  0  0  0  0
   -2.4140    0.1023   -2.0258 H   0  0  0  0  0  0  0  0  0  0  0  0
   -2.8116   -0.7849    0.0939 H   0  0  0  0  0  0  0  0  0  0  0  0
   -2.8566    0.8154    0.8214 H   0  0  0  0  0  0  0  0  0  0  0  0
   -0.6124    1.0551    0.4304 H   0  0  0  0  0  0  0  0  0  0  0  0
   -0.2218   -0.3275   -1.4349 H   0  0  0  0  0  0  0  0  0  0  0  0
   -0.3112   -1.7000   -0.3661 H   0  0  0  0  0  0  0  0  0  0  0  0
    2.0477   -1.0475   -0.6945 H   0  0  0  0  0  0  0  0  0  0  0  0
    1.6713    0.5567   -0.1223 H   0  0  0  0  0  0  0  0  0  0  0  0
    1.4248   -1.9480    1.5987 H   0  0  0  0  0  0  0  0  0  0  0  0
    0.8249   -0.4527    3.3724 H   0  0  0  0  0  0  0  0  0  0  0  0
    0.9334    0.9096    2.2955 H   0  0  0  0  0  0  0  0  0  0  0  0
   -1.0417   -1.3726    2.0142 H   0  0  0  0  0  0  0  0  0  0  0  0
   -1.4069    0.2477    2.5342 H   0  0  0  0  0  0  0  0  0  0  0  0
    4.6312    0.6400    1.5738 H   0  0  0  0  0  0  0  0  0  0  0  0
    3.0431    1.2961    1.8234 H   0  0  0  0  0  0  0  0  0  0  0  0
    3.1785    0.2198    4.2075 H   0  0  0  0  0  0  0  0  0  0  0  0
    5.7433   -2.8742    1.9295 H   0  0  0  0  0  0  0  0  0  0  0  0
    5.5702   -1.3219    2.7143 H   0  0  0  0  0  0  0  0  0  0  0  0
    7.5551   -0.2262    1.8969 H   0  0  0  0  0  0  0  0  0  0  0  0
    8.6460    0.9658    0.0875 H   0  0  0  0  0  0  0  0  0  0  0  0
    6.0182   -0.8125   -2.6705 H   0  0  0  0  0  0  0  0  0  0  0  0
    4.9362   -2.0160   -0.8640 H   0  0  0  0  0  0  0  0  0  0  0  0
    5.8554    1.2867    3.5404 H   0  0  0  0  0  0  0  0  0  0  0  0
    5.1852    0.9668    5.1663 H   0  0  0  0  0  0  0  0  0  0  0  0
    9.9580    0.2042   -4.1008 H   0  0  0  0  0  0  0  0  0  0  0  0
    8.8792   -1.0758   -3.5714 H   0  0  0  0  0  0  0  0  0  0  0  0
   10.0381   -0.4033   -2.4677 H   0  0  0  0  0  0  0  0  0  0  0  0
  1  2  1  0
  2  3  2  0
  2  7  1  0
  7  6  2  0
  6  5  1  0
  5  4  2  0
  4  3  1  0
  8  9  2  0
  8 13  1  0
 13 12  2  0
 12 11  1  0
 11 10  2  0
 10  9  1  0
  1  8  1  0
  1 14  1  0
 14 15  1  0
 16 17  1  0
 16 21  1  0
 21 20  1  0
 20 19  1  0
 19 18  1  0
 18 17  1  0
 15 16  1  0
 19 22  1  0
 23 24  1  0
 24 37  2  0
 22 25  1  0
 25 26  2  0
 25 27  1  0
 28 29  2  0
 28 33  1  0
 33 32  2  0
 32 31  1  0
 31 30  2  0
 30 29  1  0
 27 28  1  0
 34 35  2  0
 34 36  2  0
 31 34  1  0
 22 23  1  0
 34 38  1  0
  1 39  1  0
  3 40  1  0
  4 41  1  0
  5 42  1  0
  6 43  1  0
  7 44  1  0
  9 45  1  0
 10 46  1  0
 11 47  1  0
 12 48  1  0
 13 49  1  0
 14 50  1  0
 14 51  1  0
 15 52  1  0
 15 53  1  0
 16 54  1  1
 17 55  1  0
 17 56  1  0
 18 57  1  0
 18 58  1  0
 19 59  1  6
 20 60  1  0
 20 61  1  0
 21 62  1  0
 21 63  1  0
 23 64  1  0
 23 65  1  0
 24 66  1  0
 27 67  1  0
 27 68  1  0
 29 69  1  0
 30 70  1  0
 32 71  1  0
 33 72  1  0
 37 73  1  0
 37 74  1  0
 38 75  1  0
 38 76  1  0
 38 77  1  0
M  CHG  1  16   1
M  END
>  <_TriposChargeType>  (55) 
GASTEIGER

>  <Activity>  (55) 
7.43

$$$$
CCR5_39
     RDKit          3D

 73 77  0  0  0  0  0  0  0  0999 V2000
   -3.9858    1.4490   -1.5003 C   0  0  0  0  0  0  0  0  0  0  0  0
   -4.4356    2.6835   -0.6875 C   0  0  0  0  0  0  0  0  0  0  0  0
   -5.7848    3.0547   -0.7621 C   0  0  0  0  0  0  0  0  0  0  0  0
   -6.2827    4.1240   -0.0126 C   0  0  0  0  0  0  0  0  0  0  0  0
   -5.4256    4.8561    0.8116 C   0  0  0  0  0  0  0  0  0  0  0  0
   -4.0707    4.5215    0.8660 C   0  0  0  0  0  0  0  0  0  0  0  0
   -3.5771    3.4532    0.1108 C   0  0  0  0  0  0  0  0  0  0  0  0
   -4.9624    0.2717   -1.3228 C   0  0  0  0  0  0  0  0  0  0  0  0
   -5.5873    0.0327   -0.0923 C   0  0  0  0  0  0  0  0  0  0  0  0
   -6.4779   -1.0344    0.0559 C   0  0  0  0  0  0  0  0  0  0  0  0
   -6.7491   -1.8755   -1.0262 C   0  0  0  0  0  0  0  0  0  0  0  0
   -6.1253   -1.6471   -2.2554 C   0  0  0  0  0  0  0  0  0  0  0  0
   -5.2347   -0.5795   -2.4005 C   0  0  0  0  0  0  0  0  0  0  0  0
   -2.5405    0.9230   -1.2548 C   0  0  0  0  0  0  0  0  0  0  0  0
   -2.3473    0.2961    0.1547 C   0  0  0  0  0  0  0  0  0  0  0  0
   -0.9053    0.1774    0.5027 N   0  0  2  0  0  4  0  0  0  0  0  0
   -0.1876   -0.9065   -0.2131 C   0  0  0  0  0  0  0  0  0  0  0  0
    1.3373   -0.8251    0.0477 C   0  0  0  0  0  0  0  0  0  0  0  0
    1.6544   -0.8906    1.5635 C   0  0  2  0  0  0  0  0  0  0  0  0
    0.8676    0.2468    2.2632 C   0  0  0  0  0  0  0  0  0  0  0  0
   -0.6492    0.1382    1.9639 C   0  0  0  0  0  0  0  0  0  0  0  0
    3.1206   -0.8508    1.6995 N   0  0  0  0  0  0  0  0  0  0  0  0
    3.8551    0.4064    1.8519 C   0  0  0  0  0  0  0  0  0  0  0  0
    3.6289    1.2308    3.1416 C   0  0  0  0  0  0  0  0  0  0  0  0
    3.7995   -2.0087    1.4618 C   0  0  0  0  0  0  0  0  0  0  0  0
    3.2048   -3.0655    1.3206 O   0  0  0  0  0  0  0  0  0  0  0  0
    5.3039   -2.0948    1.3346 C   0  0  0  0  0  0  0  0  0  0  0  0
    5.8988   -1.0296    0.4040 C   0  0  0  0  0  0  0  0  0  0  0  0
    7.0670   -0.3431    0.7487 C   0  0  0  0  0  0  0  0  0  0  0  0
    7.5790    0.6499   -0.0916 C   0  0  0  0  0  0  0  0  0  0  0  0
    6.9474    0.9682   -1.3025 C   0  0  0  0  0  0  0  0  0  0  0  0
    5.7888    0.2588   -1.6501 C   0  0  0  0  0  0  0  0  0  0  0  0
    5.2742   -0.7336   -0.8110 C   0  0  0  0  0  0  0  0  0  0  0  0
    7.4458    1.9372   -2.1179 N   0  0  0  0  0  4  0  0  0  0  0  0
    6.8704    2.1624   -3.1607 O   0  0  0  0  0  0  0  0  0  0  0  0
    8.4421    2.5297   -1.7636 O   0  0  0  0  0  1  0  0  0  0  0  0
    4.9897    0.5542    2.8929 C   0  0  0  0  0  0  0  0  0  0  0  0
   -3.9891    1.8286   -2.5007 H   0  0  0  0  0  0  0  0  0  0  0  0
   -6.4218    2.5294   -1.3812 H   0  0  0  0  0  0  0  0  0  0  0  0
   -7.2828    4.3723   -0.0682 H   0  0  0  0  0  0  0  0  0  0  0  0
   -5.7907    5.6388    1.3765 H   0  0  0  0  0  0  0  0  0  0  0  0
   -3.4310    5.0651    1.4662 H   0  0  0  0  0  0  0  0  0  0  0  0
   -2.5703    3.2288    0.1412 H   0  0  0  0  0  0  0  0  0  0  0  0
   -5.3887    0.6492    0.7111 H   0  0  0  0  0  0  0  0  0  0  0  0
   -6.9356   -1.2011    0.9657 H   0  0  0  0  0  0  0  0  0  0  0  0
   -7.4077   -2.6626   -0.9180 H   0  0  0  0  0  0  0  0  0  0  0  0
   -6.3222   -2.2670   -3.0567 H   0  0  0  0  0  0  0  0  0  0  0  0
   -4.7740   -0.4174   -3.3096 H   0  0  0  0  0  0  0  0  0  0  0  0
   -1.8402    1.7203   -1.3921 H   0  0  0  0  0  0  0  0  0  0  0  0
   -2.3693    0.1431   -1.9671 H   0  0  0  0  0  0  0  0  0  0  0  0
   -2.8119   -0.6670    0.1922 H   0  0  0  0  0  0  0  0  0  0  0  0
   -2.8083    0.9437    0.8709 H   0  0  0  0  0  0  0  0  0  0  0  0
   -0.5028    1.0486    0.1572 H   0  0  0  0  0  0  0  0  0  0  0  0
   -0.3833   -0.8440   -1.2632 H   0  0  0  0  0  0  0  0  0  0  0  0
   -0.5424   -1.8460    0.1562 H   0  0  0  0  0  0  0  0  0  0  0  0
    1.8379   -1.6201   -0.4644 H   0  0  0  0  0  0  0  0  0  0  0  0
    1.6874    0.1153   -0.3238 H   0  0  0  0  0  0  0  0  0  0  0  0
    1.3374   -1.7896    2.0495 H   0  0  0  0  0  0  0  0  0  0  0  0
    1.0355    0.2117    3.3194 H   0  0  0  0  0  0  0  0  0  0  0  0
    1.2188    1.1822    1.8803 H   0  0  0  0  0  0  0  0  0  0  0  0
   -1.0405   -0.7666    2.3799 H   0  0  0  0  0  0  0  0  0  0  0  0
   -1.1412    0.9751    2.4138 H   0  0  0  0  0  0  0  0  0  0  0  0
    3.7908    0.5796    0.7980 H   0  0  0  0  0  0  0  0  0  0  0  0
    2.9587    0.9286    3.9191 H   0  0  0  0  0  0  0  0  0  0  0  0
    3.3079    2.2289    3.3551 H   0  0  0  0  0  0  0  0  0  0  0  0
    5.5790   -3.0686    0.9868 H   0  0  0  0  0  0  0  0  0  0  0  0
    5.7064   -1.9120    2.3090 H   0  0  0  0  0  0  0  0  0  0  0  0
    7.5545   -0.5709    1.6293 H   0  0  0  0  0  0  0  0  0  0  0  0
    8.4350    1.1565    0.1834 H   0  0  0  0  0  0  0  0  0  0  0  0
    5.3091    0.4726   -2.5385 H   0  0  0  0  0  0  0  0  0  0  0  0
    4.4266   -1.2517   -1.0906 H   0  0  0  0  0  0  0  0  0  0  0  0
    5.8892    1.1019    2.7037 H   0  0  0  0  0  0  0  0  0  0  0  0
    5.6074   -0.1266    3.4405 H   0  0  0  0  0  0  0  0  0  0  0  0
  1  2  1  0
  2  3  2  0
  2  7  1  0
  7  6  2  0
  6  5  1  0
  5  4  2  0
  4  3  1  0
  8  9  2  0
  8 13  1  0
 13 12  2  0
 12 11  1  0
 11 10  2  0
 10  9  1  0
  1  8  1  0
  1 14  1  0
 14 15  1  0
 16 17  1  0
 16 21  1  0
 21 20  1  0
 20 19  1  0
 19 18  1  0
 18 17  1  0
 15 16  1  0
 19 22  1  0
 22 23  1  0
 23 24  1  0
 22 25  1  0
 25 26  2  0
 25 27  1  0
 28 29  2  0
 28 33  1  0
 33 32  2  0
 32 31  1  0
 31 30  2  0
 30 29  1  0
 27 28  1  0
 34 35  2  0
 34 36  1  0
 31 34  1  0
 23 37  1  0
 24 37  1  0
  1 38  1  0
  3 39  1  0
  4 40  1  0
  5 41  1  0
  6 42  1  0
  7 43  1  0
  9 44  1  0
 10 45  1  0
 11 46  1  0
 12 47  1  0
 13 48  1  0
 14 49  1  0
 14 50  1  0
 15 51  1  0
 15 52  1  0
 16 53  1  6
 17 54  1  0
 17 55  1  0
 18 56  1  0
 18 57  1  0
 19 58  1  1
 20 59  1  0
 20 60  1  0
 21 61  1  0
 21 62  1  0
 23 63  1  0
 24 64  1  0
 24 65  1  0
 27 66  1  0
 27 67  1  0
 29 68  1  0
 30 69  1  0
 32 70  1  0
 33 71  1  0
 37 72  1  0
 37 73  1  0
M  CHG  3  16   1  34   1  36  -1
M  END
>  <_TriposChargeType>  (56) 
GASTEIGER

>  <Activity>  (56) 
6.51

$$$$
CCR5_07
     RDKit          3D

 67 70  0  0  0  0  0  0  0  0999 V2000
   -3.9952    1.4285   -1.5039 C   0  0  0  0  0  0  0  0  0  0  0  0
   -4.4313    2.6751   -0.7026 C   0  0  0  0  0  0  0  0  0  0  0  0
   -5.7747    3.0641   -0.7887 C   0  0  0  0  0  0  0  0  0  0  0  0
   -6.2609    4.1500   -0.0555 C   0  0  0  0  0  0  0  0  0  0  0  0
   -5.3980    4.8785    0.7659 C   0  0  0  0  0  0  0  0  0  0  0  0
   -4.0492    4.5227    0.8349 C   0  0  0  0  0  0  0  0  0  0  0  0
   -3.5669    3.4382    0.0956 C   0  0  0  0  0  0  0  0  0  0  0  0
   -4.9764    0.2585   -1.3062 C   0  0  0  0  0  0  0  0  0  0  0  0
   -5.6021    0.0424   -0.0719 C   0  0  0  0  0  0  0  0  0  0  0  0
   -6.4962   -1.0192    0.0940 C   0  0  0  0  0  0  0  0  0  0  0  0
   -6.7698   -1.8776   -0.9739 C   0  0  0  0  0  0  0  0  0  0  0  0
   -6.1453   -1.6719   -2.2067 C   0  0  0  0  0  0  0  0  0  0  0  0
   -5.2516   -0.6096   -2.3696 C   0  0  0  0  0  0  0  0  0  0  0  0
   -2.5505    0.8985   -1.2651 C   0  0  0  0  0  0  0  0  0  0  0  0
   -2.3499    0.2746    0.1452 C   0  0  0  0  0  0  0  0  0  0  0  0
   -0.9097    0.1778    0.5060 N   0  0  2  0  0  4  0  0  0  0  0  0
   -0.1372   -0.8178   -0.2795 C   0  0  0  0  0  0  0  0  0  0  0  0
    1.3805   -0.7157    0.0194 C   0  0  0  0  0  0  0  0  0  0  0  0
    1.6578   -0.8783    1.5349 C   0  0  2  0  0  0  0  0  0  0  0  0
    0.8334    0.2029    2.2817 C   0  0  0  0  0  0  0  0  0  0  0  0
   -0.6752    0.0464    1.9666 C   0  0  0  0  0  0  0  0  0  0  0  0
    3.1162   -0.8592    1.7477 N   0  0  0  0  0  0  0  0  0  0  0  0
    3.8450    0.3588    2.1282 C   0  0  0  0  0  0  0  0  0  0  0  0
    7.6968    2.0956   -2.2598 Cl  0  0  0  0  0  0  0  0  0  0  0  0
    3.8017   -1.9987    1.4390 C   0  0  0  0  0  0  0  0  0  0  0  0
    3.2165   -3.0185    1.1105 O   0  0  0  0  0  0  0  0  0  0  0  0
    5.3099   -2.0938    1.4608 C   0  0  0  0  0  0  0  0  0  0  0  0
    5.9391   -1.0533    0.5242 C   0  0  0  0  0  0  0  0  0  0  0  0
    7.0125   -0.2595    0.9453 C   0  0  0  0  0  0  0  0  0  0  0  0
    7.5510    0.7075    0.0913 C   0  0  0  0  0  0  0  0  0  0  0  0
    7.0273    0.8784   -1.1927 C   0  0  0  0  0  0  0  0  0  0  0  0
    5.9685    0.0755   -1.6242 C   0  0  0  0  0  0  0  0  0  0  0  0
    5.4308   -0.8910   -0.7697 C   0  0  0  0  0  0  0  0  0  0  0  0
   -4.0054    1.7965   -2.5086 H   0  0  0  0  0  0  0  0  0  0  0  0
   -6.4161    2.5397   -1.4041 H   0  0  0  0  0  0  0  0  0  0  0  0
   -7.2566    4.4132   -0.1211 H   0  0  0  0  0  0  0  0  0  0  0  0
   -5.7544    5.6742    1.3181 H   0  0  0  0  0  0  0  0  0  0  0  0
   -3.4056    5.0626    1.4342 H   0  0  0  0  0  0  0  0  0  0  0  0
   -2.5644    3.1969    0.1378 H   0  0  0  0  0  0  0  0  0  0  0  0
   -5.4015    0.6717    0.7211 H   0  0  0  0  0  0  0  0  0  0  0  0
   -6.9547   -1.1691    1.0063 H   0  0  0  0  0  0  0  0  0  0  0  0
   -7.4308   -2.6608   -0.8525 H   0  0  0  0  0  0  0  0  0  0  0  0
   -6.3440   -2.3046   -2.9974 H   0  0  0  0  0  0  0  0  0  0  0  0
   -4.7907   -0.4639   -3.2814 H   0  0  0  0  0  0  0  0  0  0  0  0
   -1.8485    1.6931   -1.4091 H   0  0  0  0  0  0  0  0  0  0  0  0
   -2.3867    0.1156   -1.9759 H   0  0  0  0  0  0  0  0  0  0  0  0
   -2.7994   -0.6957    0.1806 H   0  0  0  0  0  0  0  0  0  0  0  0
   -2.8224    0.9184    0.8573 H   0  0  0  0  0  0  0  0  0  0  0  0
   -0.5313    1.0837    0.2292 H   0  0  0  0  0  0  0  0  0  0  0  0
   -0.3137   -0.6741   -1.3250 H   0  0  0  0  0  0  0  0  0  0  0  0
   -0.4669   -1.7946    0.0069 H   0  0  0  0  0  0  0  0  0  0  0  0
    1.9133   -1.4618   -0.5323 H   0  0  0  0  0  0  0  0  0  0  0  0
    1.7180    0.2539   -0.2819 H   0  0  0  0  0  0  0  0  0  0  0  0
    1.3370   -1.8152    1.9401 H   0  0  0  0  0  0  0  0  0  0  0  0
    0.9983    0.1276    3.3362 H   0  0  0  0  0  0  0  0  0  0  0  0
    1.1537    1.1676    1.9476 H   0  0  0  0  0  0  0  0  0  0  0  0
   -1.0271   -0.9031    2.3122 H   0  0  0  0  0  0  0  0  0  0  0  0
   -1.2147    0.8194    2.4729 H   0  0  0  0  0  0  0  0  0  0  0  0
    3.1469    1.1435    2.3330 H   0  0  0  0  0  0  0  0  0  0  0  0
    4.5119    0.6515    1.3444 H   0  0  0  0  0  0  0  0  0  0  0  0
    4.4221    0.1631    3.0077 H   0  0  0  0  0  0  0  0  0  0  0  0
    5.6187   -3.0776    1.1750 H   0  0  0  0  0  0  0  0  0  0  0  0
    5.6445   -1.8942    2.4574 H   0  0  0  0  0  0  0  0  0  0  0  0
    7.4078   -0.3886    1.8898 H   0  0  0  0  0  0  0  0  0  0  0  0
    8.3366    1.2961    0.4098 H   0  0  0  0  0  0  0  0  0  0  0  0
    5.5834    0.1961   -2.5740 H   0  0  0  0  0  0  0  0  0  0  0  0
    4.6546   -1.4884   -1.0947 H   0  0  0  0  0  0  0  0  0  0  0  0
  1  2  1  0
  2  3  2  0
  2  7  1  0
  7  6  2  0
  6  5  1  0
  5  4  2  0
  4  3  1  0
  8  9  2  0
  8 13  1  0
 13 12  2  0
 12 11  1  0
 11 10  2  0
 10  9  1  0
  1  8  1  0
  1 14  1  0
 14 15  1  0
 16 17  1  0
 16 21  1  0
 21 20  1  0
 20 19  1  0
 19 18  1  0
 18 17  1  0
 15 16  1  0
 19 22  1  0
 22 23  1  0
 31 24  1  0
 22 25  1  0
 25 26  2  0
 25 27  1  0
 28 29  2  0
 33 28  1  0
 32 33  2  0
 32 31  1  0
 31 30  2  0
 30 29  1  0
 27 28  1  0
  1 34  1  0
  3 35  1  0
  4 36  1  0
  5 37  1  0
  6 38  1  0
  7 39  1  0
  9 40  1  0
 10 41  1  0
 11 42  1  0
 12 43  1  0
 13 44  1  0
 14 45  1  0
 14 46  1  0
 15 47  1  0
 15 48  1  0
 16 49  1  6
 17 50  1  0
 17 51  1  0
 18 52  1  0
 18 53  1  0
 19 54  1  1
 20 55  1  0
 20 56  1  0
 21 57  1  0
 21 58  1  0
 23 59  1  0
 23 60  1  0
 23 61  1  0
 27 62  1  0
 27 63  1  0
 29 64  1  0
 30 65  1  0
 32 66  1  0
 33 67  1  0
M  CHG  1  16   1
M  END
>  <_TriposChargeType>  (57) 
GASTEIGER

>  <Activity>  (57) 
6.1

$$$$
CCR5_44
     RDKit          3D

 69 72  0  0  0  0  0  0  0  0999 V2000
   -4.0397    1.4871   -1.4958 C   0  0  0  0  0  0  0  0  0  0  0  0
   -4.4497    2.6862   -0.6132 C   0  0  0  0  0  0  0  0  0  0  0  0
   -5.7908    3.0898   -0.6549 C   0  0  0  0  0  0  0  0  0  0  0  0
   -6.2533    4.1431    0.1387 C   0  0  0  0  0  0  0  0  0  0  0  0
   -5.3695    4.8204    0.9813 C   0  0  0  0  0  0  0  0  0  0  0  0
   -4.0248    4.4445    1.0145 C   0  0  0  0  0  0  0  0  0  0  0  0
   -3.5661    3.3928    0.2153 C   0  0  0  0  0  0  0  0  0  0  0  0
   -5.0042    0.3000   -1.3203 C   0  0  0  0  0  0  0  0  0  0  0  0
   -5.5893    0.0232   -0.0783 C   0  0  0  0  0  0  0  0  0  0  0  0
   -6.4683   -1.0539    0.0672 C   0  0  0  0  0  0  0  0  0  0  0  0
   -6.7665   -1.8674   -1.0289 C   0  0  0  0  0  0  0  0  0  0  0  0
   -6.1823   -1.6009   -2.2699 C   0  0  0  0  0  0  0  0  0  0  0  0
   -5.3044   -0.5226   -2.4126 C   0  0  0  0  0  0  0  0  0  0  0  0
   -2.5817    0.9608   -1.3495 C   0  0  0  0  0  0  0  0  0  0  0  0
   -2.3218    0.2305   -0.0008 C   0  0  0  0  0  0  0  0  0  0  0  0
   -0.8736    0.1226    0.3233 N   0  0  2  0  0  4  0  0  0  0  0  0
   -0.0638   -0.6511   -0.6522 C   0  0  0  0  0  0  0  0  0  0  0  0
    1.4453   -0.5000   -0.3337 C   0  0  0  0  0  0  0  0  0  0  0  0
    1.7410   -0.9814    1.1100 C   0  0  2  0  0  0  0  0  0  0  0  0
    0.8703   -0.1713    2.0991 C   0  0  0  0  0  0  0  0  0  0  0  0
   -0.6285   -0.3040    1.7265 C   0  0  0  0  0  0  0  0  0  0  0  0
    3.1688   -0.8985    1.4631 N   0  0  0  0  0  0  0  0  0  0  0  0
    3.9774    0.2645    1.0750 C   0  0  0  0  0  0  0  0  0  0  0  0
    9.1819    0.3214    2.2516 C   0  0  0  0  0  0  0  0  0  0  0  0
    3.6855   -1.8852    2.2571 C   0  0  0  0  0  0  0  0  0  0  0  0
    2.9009   -2.5787    2.8851 O   0  0  0  0  0  0  0  0  0  0  0  0
    4.9496   -2.1819    2.4264 N   0  0  0  0  0  0  0  0  0  0  0  0
    5.9631   -1.6746    1.6888 C   0  0  0  0  0  0  0  0  0  0  0  0
    7.0120   -0.9915    2.3118 C   0  0  0  0  0  0  0  0  0  0  0  0
    8.0521   -0.4442    1.5524 C   0  0  0  0  0  0  0  0  0  0  0  0
    8.0448   -0.6039    0.1619 C   0  0  0  0  0  0  0  0  0  0  0  0
    7.0113   -1.3085   -0.4621 C   0  0  0  0  0  0  0  0  0  0  0  0
    5.9759   -1.8526    0.3023 C   0  0  0  0  0  0  0  0  0  0  0  0
   -4.0958    1.9065   -2.4786 H   0  0  0  0  0  0  0  0  0  0  0  0
   -6.4483    2.6009   -1.2824 H   0  0  0  0  0  0  0  0  0  0  0  0
   -7.2468    4.4200    0.1020 H   0  0  0  0  0  0  0  0  0  0  0  0
   -5.7076    5.5935    1.5755 H   0  0  0  0  0  0  0  0  0  0  0  0
   -3.3666    4.9453    1.6318 H   0  0  0  0  0  0  0  0  0  0  0  0
   -2.5673    3.1340    0.2354 H   0  0  0  0  0  0  0  0  0  0  0  0
   -5.3699    0.6188    0.7354 H   0  0  0  0  0  0  0  0  0  0  0  0
   -6.8975   -1.2485    0.9853 H   0  0  0  0  0  0  0  0  0  0  0  0
   -7.4160   -2.6623   -0.9223 H   0  0  0  0  0  0  0  0  0  0  0  0
   -6.3991   -2.2004   -3.0814 H   0  0  0  0  0  0  0  0  0  0  0  0
   -4.8739   -0.3313   -3.3308 H   0  0  0  0  0  0  0  0  0  0  0  0
   -1.8946    1.7743   -1.4550 H   0  0  0  0  0  0  0  0  0  0  0  0
   -2.4355    0.2380   -2.1248 H   0  0  0  0  0  0  0  0  0  0  0  0
   -2.7587   -0.7458   -0.0293 H   0  0  0  0  0  0  0  0  0  0  0  0
   -2.7754    0.8182    0.7697 H   0  0  0  0  0  0  0  0  0  0  0  0
   -0.5311    1.0792    0.2334 H   0  0  0  0  0  0  0  0  0  0  0  0
   -0.2656   -0.3144   -1.6476 H   0  0  0  0  0  0  0  0  0  0  0  0
   -0.3296   -1.6848   -0.5769 H   0  0  0  0  0  0  0  0  0  0  0  0
    2.0273   -1.0606   -1.0350 H   0  0  0  0  0  0  0  0  0  0  0  0
    1.7105    0.5337   -0.4117 H   0  0  0  0  0  0  0  0  0  0  0  0
    1.4896   -2.0197    1.1708 H   0  0  0  0  0  0  0  0  0  0  0  0
    1.0328   -0.5148    3.0993 H   0  0  0  0  0  0  0  0  0  0  0  0
    1.1497    0.8598    2.0381 H   0  0  0  0  0  0  0  0  0  0  0  0
   -0.9504   -1.3154    1.8622 H   0  0  0  0  0  0  0  0  0  0  0  0
   -1.1903    0.3378    2.3725 H   0  0  0  0  0  0  0  0  0  0  0  0
    3.3940    0.9152    0.4576 H   0  0  0  0  0  0  0  0  0  0  0  0
    4.8558   -0.0527    0.5527 H   0  0  0  0  0  0  0  0  0  0  0  0
    4.2796    0.7923    1.9553 H   0  0  0  0  0  0  0  0  0  0  0  0
    9.8843    0.6667    1.5220 H   0  0  0  0  0  0  0  0  0  0  0  0
    9.6694   -0.3085    2.9661 H   0  0  0  0  0  0  0  0  0  0  0  0
    8.7694    1.1626    2.7684 H   0  0  0  0  0  0  0  0  0  0  0  0
    5.1783   -2.8192    3.1411 H   0  0  0  0  0  0  0  0  0  0  0  0
    7.0192   -0.8902    3.3388 H   0  0  0  0  0  0  0  0  0  0  0  0
    8.8061   -0.1995   -0.4054 H   0  0  0  0  0  0  0  0  0  0  0  0
    7.0130   -1.4268   -1.4873 H   0  0  0  0  0  0  0  0  0  0  0  0
    5.2208   -2.3858   -0.1566 H   0  0  0  0  0  0  0  0  0  0  0  0
  1  2  1  0
  2  3  2  0
  2  7  1  0
  7  6  2  0
  6  5  1  0
  5  4  2  0
  4  3  1  0
  8  9  2  0
  8 13  1  0
 13 12  2  0
 12 11  1  0
 11 10  2  0
 10  9  1  0
  1  8  1  0
  1 14  1  0
 14 15  1  0
 16 17  1  0
 16 21  1  0
 21 20  1  0
 20 19  1  0
 19 18  1  0
 18 17  1  0
 15 16  1  0
 19 22  1  0
 22 23  1  0
 30 24  1  0
 22 25  1  0
 25 26  2  0
 25 27  1  0
 28 29  2  0
 33 28  1  0
 32 33  2  0
 31 32  1  0
 31 30  2  0
 30 29  1  0
 27 28  1  0
  1 34  1  0
  3 35  1  0
  4 36  1  0
  5 37  1  0
  6 38  1  0
  7 39  1  0
  9 40  1  0
 10 41  1  0
 11 42  1  0
 12 43  1  0
 13 44  1  0
 14 45  1  0
 14 46  1  0
 15 47  1  0
 15 48  1  0
 16 49  1  1
 17 50  1  0
 17 51  1  0
 18 52  1  0
 18 53  1  0
 19 54  1  6
 20 55  1  0
 20 56  1  0
 21 57  1  0
 21 58  1  0
 23 59  1  0
 23 60  1  0
 23 61  1  0
 24 62  1  0
 24 63  1  0
 24 64  1  0
 27 65  1  0
 29 66  1  0
 31 67  1  0
 32 68  1  0
 33 69  1  0
M  CHG  1  16   1
M  END
>  <_TriposChargeType>  (58) 
GASTEIGER

>  <Activity>  (58) 
5.23

$$$$
CCR5_73
     RDKit          3D

 78 81  0  0  0  0  0  0  0  0999 V2000
   -4.0018    1.3958   -1.5082 C   0  0  2  0  0  0  0  0  0  0  0  0
   -4.4038    2.6602   -0.7174 C   0  0  0  0  0  0  0  0  0  0  0  0
   -5.7350    3.0879   -0.8109 C   0  0  0  0  0  0  0  0  0  0  0  0
   -6.1888    4.2022   -0.0994 C   0  0  0  0  0  0  0  0  0  0  0  0
   -5.3033    4.9198    0.7076 C   0  0  0  0  0  0  0  0  0  0  0  0
   -3.9685    4.5199    0.7902 C   0  0  0  0  0  0  0  0  0  0  0  0
   -3.5205    3.4042    0.0782 C   0  0  0  0  0  0  0  0  0  0  0  0
   -5.0062    0.2503   -1.2866 C   0  0  0  0  0  0  0  0  0  0  0  0
   -5.6311    0.0659   -0.0477 C   0  0  0  0  0  0  0  0  0  0  0  0
   -6.5561   -0.9661    0.1349 C   0  0  0  0  0  0  0  0  0  0  0  0
   -6.8706   -1.8351   -0.9161 C   0  0  0  0  0  0  0  0  0  0  0  0
   -6.2346   -1.6597   -2.1505 C   0  0  0  0  0  0  0  0  0  0  0  0
   -5.3084   -0.6285   -2.3327 C   0  0  0  0  0  0  0  0  0  0  0  0
   -2.5627    0.8466   -1.2816 C   0  0  0  0  0  0  0  0  0  0  0  0
   -2.3642    0.2083    0.1228 C   0  0  0  0  0  0  0  0  0  0  0  0
   -0.9350    0.1106    0.5240 N   0  0  2  0  0  4  0  0  0  0  0  0
   -0.0577   -0.6572   -0.3949 C   0  0  0  0  0  0  0  0  0  0  0  0
    1.4293   -0.4871    0.0072 C   0  0  0  0  0  0  0  0  0  0  0  0
    1.6636   -0.9225    1.4735 C   0  0  2  0  0  0  0  0  0  0  0  0
    0.7007   -0.1276    2.3948 C   0  0  0  0  0  0  0  0  0  0  0  0
   -0.7679   -0.3177    1.9370 C   0  0  0  0  0  0  0  0  0  0  0  0
    3.1068   -0.7937    1.7548 N   0  0  0  0  0  0  0  0  0  0  0  0
    3.7078    0.4662    2.2209 C   0  0  0  0  0  0  0  0  0  0  0  0
    3.7876    0.5390    3.7684 C   0  0  0  0  0  0  0  0  0  0  0  0
    3.8981   -1.8739    1.4801 C   0  0  0  0  0  0  0  0  0  0  0  0
    3.4208   -2.9185    1.0664 O   0  0  0  0  0  0  0  0  0  0  0  0
    5.4038   -1.8805    1.6278 C   0  0  0  0  0  0  0  0  0  0  0  0
    6.0801   -1.0948    0.4942 C   0  0  0  0  0  0  0  0  0  0  0  0
    7.1775   -0.2669    0.7590 C   0  0  0  0  0  0  0  0  0  0  0  0
    7.7548    0.4899   -0.2647 C   0  0  0  0  0  0  0  0  0  0  0  0
    7.2422    0.4231   -1.5628 C   0  0  0  0  0  0  0  0  0  0  0  0
    6.1741   -0.4341   -1.8396 C   0  0  0  0  0  0  0  0  0  0  0  0
    5.5999   -1.1943   -0.8168 C   0  0  0  0  0  0  0  0  0  0  0  0
    7.9808    1.3800   -2.8642 S   0  0  0  0  0  6  0  0  0  0  0  0
    7.0113    1.5715   -3.9249 O   0  0  0  0  0  0  0  0  0  0  0  0
    8.6484    2.5314   -2.2892 O   0  0  0  0  0  0  0  0  0  0  0  0
   -3.1185    5.2059    1.5508 F   0  0  0  0  0  0  0  0  0  0  0  0
   -7.7761   -2.8296   -0.7416 N   0  0  0  0  0  0  0  0  0  0  0  0
    9.2334    0.2237   -3.4394 C   0  0  0  0  0  0  0  0  0  0  0  0
   -4.0165    1.7466   -2.5189 H   0  0  0  0  0  0  0  0  0  0  0  0
   -6.3921    2.5709   -1.4159 H   0  0  0  0  0  0  0  0  0  0  0  0
   -7.1761    4.4940   -0.1703 H   0  0  0  0  0  0  0  0  0  0  0  0
   -5.6336    5.7403    1.2393 H   0  0  0  0  0  0  0  0  0  0  0  0
   -2.5289    3.1247    0.1385 H   0  0  0  0  0  0  0  0  0  0  0  0
   -5.4070    0.6971    0.7374 H   0  0  0  0  0  0  0  0  0  0  0  0
   -7.0112   -1.0883    1.0530 H   0  0  0  0  0  0  0  0  0  0  0  0
   -6.4512   -2.2970   -2.9328 H   0  0  0  0  0  0  0  0  0  0  0  0
   -4.8434   -0.5144   -3.2469 H   0  0  0  0  0  0  0  0  0  0  0  0
   -1.8518    1.6339   -1.4218 H   0  0  0  0  0  0  0  0  0  0  0  0
   -2.4109    0.0685   -2.0002 H   0  0  0  0  0  0  0  0  0  0  0  0
   -2.8098   -0.7643    0.1416 H   0  0  0  0  0  0  0  0  0  0  0  0
   -2.8418    0.8552    0.8287 H   0  0  0  0  0  0  0  0  0  0  0  0
   -0.6010    1.0710    0.4432 H   0  0  0  0  0  0  0  0  0  0  0  0
   -0.2055   -0.3301   -1.4029 H   0  0  0  0  0  0  0  0  0  0  0  0
   -0.3137   -1.6937   -0.3242 H   0  0  0  0  0  0  0  0  0  0  0  0
    2.0527   -1.0590   -0.6479 H   0  0  0  0  0  0  0  0  0  0  0  0
    1.6817    0.5492   -0.0778 H   0  0  0  0  0  0  0  0  0  0  0  0
    1.4240   -1.9479    1.6635 H   0  0  0  0  0  0  0  0  0  0  0  0
    0.8139   -0.4489    3.4091 H   0  0  0  0  0  0  0  0  0  0  0  0
    0.9465    0.9117    2.3293 H   0  0  0  0  0  0  0  0  0  0  0  0
   -1.0568   -1.3421    2.0466 H   0  0  0  0  0  0  0  0  0  0  0  0
   -1.3969    0.2907    2.5528 H   0  0  0  0  0  0  0  0  0  0  0  0
    3.1447    1.2960    1.8478 H   0  0  0  0  0  0  0  0  0  0  0  0
    4.7087    0.5044    1.8445 H   0  0  0  0  0  0  0  0  0  0  0  0
    2.8002    0.5031    4.1790 H   0  0  0  0  0  0  0  0  0  0  0  0
    4.2826    1.4378    4.0719 H   0  0  0  0  0  0  0  0  0  0  0  0
    4.3500   -0.2958    4.1313 H   0  0  0  0  0  0  0  0  0  0  0  0
    5.7648   -2.8877    1.6393 H   0  0  0  0  0  0  0  0  0  0  0  0
    5.6481   -1.4029    2.5536 H   0  0  0  0  0  0  0  0  0  0  0  0
    7.5624   -0.2150    1.7152 H   0  0  0  0  0  0  0  0  0  0  0  0
    8.5620    1.0998   -0.0611 H   0  0  0  0  0  0  0  0  0  0  0  0
    5.8081   -0.5062   -2.8018 H   0  0  0  0  0  0  0  0  0  0  0  0
    4.8174   -1.8326   -1.0295 H   0  0  0  0  0  0  0  0  0  0  0  0
   -7.9909   -3.4361   -1.4868 H   0  0  0  0  0  0  0  0  0  0  0  0
   -8.2186   -2.9451    0.1303 H   0  0  0  0  0  0  0  0  0  0  0  0
    9.7816    0.6632   -4.2464 H   0  0  0  0  0  0  0  0  0  0  0  0
    8.7762   -0.6902   -3.7566 H   0  0  0  0  0  0  0  0  0  0  0  0
    9.9052    0.0046   -2.6360 H   0  0  0  0  0  0  0  0  0  0  0  0
  1  2  1  0
  2  3  2  0
  2  7  1  0
  7  6  2  0
  6  5  1  0
  5  4  2  0
  4  3  1  0
  8  9  2  0
  8 13  1  0
 13 12  2  0
 12 11  1  0
 11 10  2  0
 10  9  1  0
  1  8  1  0
  1 14  1  0
 14 15  1  0
 16 17  1  0
 16 21  1  0
 21 20  1  0
 20 19  1  0
 19 18  1  0
 18 17  1  0
 15 16  1  0
 19 22  1  0
 22 23  1  0
 23 24  1  0
 22 25  1  0
 25 26  2  0
 25 27  1  0
 28 29  2  0
 28 33  1  0
 33 32  2  0
 32 31  1  0
 31 30  2  0
 30 29  1  0
 27 28  1  0
 34 35  2  0
 34 36  2  0
 31 34  1  0
  6 37  1  0
 34 39  1  0
 11 38  1  0
  1 40  1  6
  3 41  1  0
  4 42  1  0
  5 43  1  0
  7 44  1  0
  9 45  1  0
 10 46  1  0
 12 47  1  0
 13 48  1  0
 14 49  1  0
 14 50  1  0
 15 51  1  0
 15 52  1  0
 16 53  1  1
 17 54  1  0
 17 55  1  0
 18 56  1  0
 18 57  1  0
 19 58  1  6
 20 59  1  0
 20 60  1  0
 21 61  1  0
 21 62  1  0
 23 63  1  0
 23 64  1  0
 24 65  1  0
 24 66  1  0
 24 67  1  0
 27 68  1  0
 27 69  1  0
 29 70  1  0
 30 71  1  0
 32 72  1  0
 33 73  1  0
 38 74  1  0
 38 75  1  0
 39 76  1  0
 39 77  1  0
 39 78  1  0
M  CHG  1  16   1
M  END
>  <_TriposChargeType>  (59) 
GASTEIGER

>  <Activity>  (59) 
6.98

$$$$
CCR5_04
     RDKit          3D

 67 70  0  0  0  0  0  0  0  0999 V2000
   -3.9946    1.4301   -1.5035 C   0  0  0  0  0  0  0  0  0  0  0  0
   -4.4320    2.6755   -0.7011 C   0  0  0  0  0  0  0  0  0  0  0  0
   -5.7763    3.0622   -0.7849 C   0  0  0  0  0  0  0  0  0  0  0  0
   -6.2635    4.1465   -0.0500 C   0  0  0  0  0  0  0  0  0  0  0  0
   -5.4007    4.8761    0.7704 C   0  0  0  0  0  0  0  0  0  0  0  0
   -4.0510    4.5231    0.8367 C   0  0  0  0  0  0  0  0  0  0  0  0
   -3.5678    3.4401    0.0958 C   0  0  0  0  0  0  0  0  0  0  0  0
   -4.9755    0.2593   -1.3078 C   0  0  0  0  0  0  0  0  0  0  0  0
   -5.6002    0.0404   -0.0736 C   0  0  0  0  0  0  0  0  0  0  0  0
   -6.4940   -1.0216    0.0906 C   0  0  0  0  0  0  0  0  0  0  0  0
   -6.7684   -1.8777   -0.9790 C   0  0  0  0  0  0  0  0  0  0  0  0
   -6.1448   -1.6692   -2.2119 C   0  0  0  0  0  0  0  0  0  0  0  0
   -5.2512   -0.6063   -2.3730 C   0  0  0  0  0  0  0  0  0  0  0  0
   -2.5500    0.9004   -1.2640 C   0  0  0  0  0  0  0  0  0  0  0  0
   -2.3496    0.2771    0.1466 C   0  0  0  0  0  0  0  0  0  0  0  0
   -0.9090    0.1781    0.5055 N   0  0  2  0  0  4  0  0  0  0  0  0
   -0.1417   -0.8259   -0.2742 C   0  0  0  0  0  0  0  0  0  0  0  0
    1.3772   -0.7258    0.0197 C   0  0  0  0  0  0  0  0  0  0  0  0
    1.6583   -0.8772    1.5355 C   0  0  2  0  0  0  0  0  0  0  0  0
    0.8387    0.2115    2.2766 C   0  0  0  0  0  0  0  0  0  0  0  0
   -0.6712    0.0569    1.9663 C   0  0  0  0  0  0  0  0  0  0  0  0
    3.1173   -0.8587    1.7439 N   0  0  0  0  0  0  0  0  0  0  0  0
    3.8489    0.3623    2.1094 C   0  0  0  0  0  0  0  0  0  0  0  0
    3.8000   -2.0024    1.4445 C   0  0  0  0  0  0  0  0  0  0  0  0
    3.2117   -3.0242    1.1278 O   0  0  0  0  0  0  0  0  0  0  0  0
    5.3081   -2.1005    1.4635 C   0  0  0  0  0  0  0  0  0  0  0  0
    5.9419   -1.0710    0.5179 C   0  0  0  0  0  0  0  0  0  0  0  0
    7.0289   -0.2899    0.9276 C   0  0  0  0  0  0  0  0  0  0  0  0
    7.5756    0.6651    0.0653 C   0  0  0  0  0  0  0  0  0  0  0  0
    7.0448    0.8372   -1.2160 C   0  0  0  0  0  0  0  0  0  0  0  0
    5.9701    0.0487   -1.6355 C   0  0  0  0  0  0  0  0  0  0  0  0
    5.4254   -0.9063   -0.7724 C   0  0  0  0  0  0  0  0  0  0  0  0
   -4.0041    1.7993   -2.5077 H   0  0  0  0  0  0  0  0  0  0  0  0
   -6.4176    2.5373   -1.3999 H   0  0  0  0  0  0  0  0  0  0  0  0
   -7.2599    4.4077   -0.1136 H   0  0  0  0  0  0  0  0  0  0  0  0
   -5.7578    5.6706    1.3239 H   0  0  0  0  0  0  0  0  0  0  0  0
   -3.4074    5.0640    1.4352 H   0  0  0  0  0  0  0  0  0  0  0  0
   -2.5647    3.2010    0.1359 H   0  0  0  0  0  0  0  0  0  0  0  0
   -5.3991    0.6679    0.7206 H   0  0  0  0  0  0  0  0  0  0  0  0
   -6.9518   -1.1736    1.0029 H   0  0  0  0  0  0  0  0  0  0  0  0
   -7.4293   -2.6612   -0.8589 H   0  0  0  0  0  0  0  0  0  0  0  0
   -6.3440   -2.3001   -3.0039 H   0  0  0  0  0  0  0  0  0  0  0  0
   -4.7909   -0.4585   -3.2848 H   0  0  0  0  0  0  0  0  0  0  0  0
   -1.8480    1.6950   -1.4081 H   0  0  0  0  0  0  0  0  0  0  0  0
   -2.3860    0.1172   -1.9744 H   0  0  0  0  0  0  0  0  0  0  0  0
   -2.8008   -0.6924    0.1831 H   0  0  0  0  0  0  0  0  0  0  0  0
   -2.8205    0.9219    0.8589 H   0  0  0  0  0  0  0  0  0  0  0  0
   -0.5286    1.0809    0.2216 H   0  0  0  0  0  0  0  0  0  0  0  0
   -0.3207   -0.6899   -1.3203 H   0  0  0  0  0  0  0  0  0  0  0  0
   -0.4734   -1.7995    0.0208 H   0  0  0  0  0  0  0  0  0  0  0  0
    1.9063   -1.4777   -0.5276 H   0  0  0  0  0  0  0  0  0  0  0  0
    1.7166    0.2405   -0.2902 H   0  0  0  0  0  0  0  0  0  0  0  0
    1.3365   -1.8104    1.9484 H   0  0  0  0  0  0  0  0  0  0  0  0
    1.0060    0.1432    3.3312 H   0  0  0  0  0  0  0  0  0  0  0  0
    1.1607    1.1730    1.9349 H   0  0  0  0  0  0  0  0  0  0  0  0
   -1.0249   -0.8890    2.3198 H   0  0  0  0  0  0  0  0  0  0  0  0
   -1.2072    0.8352    2.4681 H   0  0  0  0  0  0  0  0  0  0  0  0
    3.1525    1.1499    2.3085 H   0  0  0  0  0  0  0  0  0  0  0  0
    4.5135    0.6461    1.3203 H   0  0  0  0  0  0  0  0  0  0  0  0
    4.4288    0.1749    2.9889 H   0  0  0  0  0  0  0  0  0  0  0  0
    5.6135   -3.0878    1.1863 H   0  0  0  0  0  0  0  0  0  0  0  0
    5.6435   -1.8910    2.4578 H   0  0  0  0  0  0  0  0  0  0  0  0
    7.4284   -0.4196    1.8702 H   0  0  0  0  0  0  0  0  0  0  0  0
    8.3720    1.2436    0.3753 H   0  0  0  0  0  0  0  0  0  0  0  0
    7.4457    1.5451   -1.8510 H   0  0  0  0  0  0  0  0  0  0  0  0
    5.5786    0.1715   -2.5824 H   0  0  0  0  0  0  0  0  0  0  0  0
    4.6377   -1.4934   -1.0884 H   0  0  0  0  0  0  0  0  0  0  0  0
  1  2  1  0
  2  3  2  0
  2  7  1  0
  7  6  2  0
  6  5  1  0
  5  4  2  0
  4  3  1  0
  8  9  2  0
  8 13  1  0
 13 12  2  0
 12 11  1  0
 11 10  2  0
 10  9  1  0
  1  8  1  0
  1 14  1  0
 14 15  1  0
 16 17  1  0
 16 21  1  0
 21 20  1  0
 20 19  1  0
 19 18  1  0
 18 17  1  0
 15 16  1  0
 19 22  1  0
 22 23  1  0
 22 24  1  0
 24 25  2  0
 24 26  1  0
 27 28  2  0
 27 32  1  0
 32 31  2  0
 31 30  1  0
 30 29  2  0
 29 28  1  0
 26 27  1  0
  1 33  1  0
  3 34  1  0
  4 35  1  0
  5 36  1  0
  6 37  1  0
  7 38  1  0
  9 39  1  0
 10 40  1  0
 11 41  1  0
 12 42  1  0
 13 43  1  0
 14 44  1  0
 14 45  1  0
 15 46  1  0
 15 47  1  0
 16 48  1  6
 17 49  1  0
 17 50  1  0
 18 51  1  0
 18 52  1  0
 19 53  1  1
 20 54  1  0
 20 55  1  0
 21 56  1  0
 21 57  1  0
 23 58  1  0
 23 59  1  0
 23 60  1  0
 26 61  1  0
 26 62  1  0
 28 63  1  0
 29 64  1  0
 30 65  1  0
 31 66  1  0
 32 67  1  0
M  CHG  1  16   1
M  END
>  <_TriposChargeType>  (60) 
GASTEIGER

>  <Activity>  (60) 
5.23

$$$$
CCR5_10
     RDKit          3D

 67 70  0  0  0  0  0  0  0  0999 V2000
   -3.9967    1.4272   -1.5041 C   0  0  0  0  0  0  0  0  0  0  0  0
   -4.4290    2.6792   -0.7096 C   0  0  0  0  0  0  0  0  0  0  0  0
   -5.7672    3.0811   -0.8141 C   0  0  0  0  0  0  0  0  0  0  0  0
   -6.2514    4.1758   -0.0927 C   0  0  0  0  0  0  0  0  0  0  0  0
   -5.3918    4.8981    0.7376 C   0  0  0  0  0  0  0  0  0  0  0  0
   -4.0483    4.5270    0.8277 C   0  0  0  0  0  0  0  0  0  0  0  0
   -3.5676    3.4347    0.0990 C   0  0  0  0  0  0  0  0  0  0  0  0
   -4.9782    0.2599   -1.2924 C   0  0  0  0  0  0  0  0  0  0  0  0
   -5.6071    0.0606   -0.0569 C   0  0  0  0  0  0  0  0  0  0  0  0
   -6.5025   -0.9980    0.1208 C   0  0  0  0  0  0  0  0  0  0  0  0
   -6.7733   -1.8710   -0.9360 C   0  0  0  0  0  0  0  0  0  0  0  0
   -6.1447   -1.6828   -2.1695 C   0  0  0  0  0  0  0  0  0  0  0  0
   -5.2504   -0.6228   -2.3446 C   0  0  0  0  0  0  0  0  0  0  0  0
   -2.5503    0.8995   -1.2706 C   0  0  0  0  0  0  0  0  0  0  0  0
   -2.3468    0.2652    0.1347 C   0  0  0  0  0  0  0  0  0  0  0  0
   -0.9083    0.1673    0.5029 N   0  0  2  0  0  4  0  0  0  0  0  0
   -0.1159   -0.7773   -0.3248 C   0  0  0  0  0  0  0  0  0  0  0  0
    1.3959   -0.6736    0.0010 C   0  0  0  0  0  0  0  0  0  0  0  0
    1.6531   -0.9205    1.5076 C   0  0  2  0  0  0  0  0  0  0  0  0
    0.8064    0.0986    2.3136 C   0  0  0  0  0  0  0  0  0  0  0  0
   -0.6944   -0.0450    1.9574 C   0  0  0  0  0  0  0  0  0  0  0  0
    3.1036   -0.8576    1.7520 N   0  0  0  0  0  0  0  0  0  0  0  0
    3.7487    0.3811    2.2088 C   0  0  0  0  0  0  0  0  0  0  0  0
    7.5580   -0.3521    2.1533 F   0  0  0  0  0  0  0  0  0  0  0  0
    3.8354   -1.9697    1.4494 C   0  0  0  0  0  0  0  0  0  0  0  0
    3.2914   -2.9866    1.0491 O   0  0  0  0  0  0  0  0  0  0  0  0
    5.3401   -2.0472    1.5586 C   0  0  0  0  0  0  0  0  0  0  0  0
    6.0049   -1.1131    0.5382 C   0  0  0  0  0  0  0  0  0  0  0  0
    7.0855   -0.3055    0.9101 C   0  0  0  0  0  0  0  0  0  0  0  0
    7.6755    0.5571   -0.0171 C   0  0  0  0  0  0  0  0  0  0  0  0
    7.1907    0.6161   -1.3265 C   0  0  0  0  0  0  0  0  0  0  0  0
    6.1180   -0.1953   -1.7061 C   0  0  0  0  0  0  0  0  0  0  0  0
    5.5319   -1.0612   -0.7782 C   0  0  0  0  0  0  0  0  0  0  0  0
   -4.0111    1.7871   -2.5117 H   0  0  0  0  0  0  0  0  0  0  0  0
   -6.4063    2.5598   -1.4344 H   0  0  0  0  0  0  0  0  0  0  0  0
   -7.2430    4.4500   -0.1735 H   0  0  0  0  0  0  0  0  0  0  0  0
   -5.7467    5.7005    1.2809 H   0  0  0  0  0  0  0  0  0  0  0  0
   -3.4074    5.0614    1.4349 H   0  0  0  0  0  0  0  0  0  0  0  0
   -2.5687    3.1819    0.1568 H   0  0  0  0  0  0  0  0  0  0  0  0
   -5.4079    0.7001    0.7282 H   0  0  0  0  0  0  0  0  0  0  0  0
   -6.9641   -1.1349    1.0336 H   0  0  0  0  0  0  0  0  0  0  0  0
   -7.4352   -2.6520   -0.8059 H   0  0  0  0  0  0  0  0  0  0  0  0
   -6.3407   -2.3267   -2.9518 H   0  0  0  0  0  0  0  0  0  0  0  0
   -4.7869   -0.4897   -3.2570 H   0  0  0  0  0  0  0  0  0  0  0  0
   -1.8507    1.6972   -1.4089 H   0  0  0  0  0  0  0  0  0  0  0  0
   -2.3848    0.1227   -1.9876 H   0  0  0  0  0  0  0  0  0  0  0  0
   -2.7947   -0.7062    0.1620 H   0  0  0  0  0  0  0  0  0  0  0  0
   -2.8195    0.9062    0.8492 H   0  0  0  0  0  0  0  0  0  0  0  0
   -0.5346    1.0892    0.2775 H   0  0  0  0  0  0  0  0  0  0  0  0
   -0.2802   -0.5794   -1.3634 H   0  0  0  0  0  0  0  0  0  0  0  0
   -0.4387   -1.7718   -0.0973 H   0  0  0  0  0  0  0  0  0  0  0  0
    1.9461   -1.3798   -0.5850 H   0  0  0  0  0  0  0  0  0  0  0  0
    1.7252    0.3157   -0.2392 H   0  0  0  0  0  0  0  0  0  0  0  0
    1.3443   -1.8921    1.8325 H   0  0  0  0  0  0  0  0  0  0  0  0
    0.9512   -0.0516    3.3631 H   0  0  0  0  0  0  0  0  0  0  0  0
    1.1256    1.0871    2.0569 H   0  0  0  0  0  0  0  0  0  0  0  0
   -1.0485   -1.0135    2.2430 H   0  0  0  0  0  0  0  0  0  0  0  0
   -1.2439    0.6999    2.4941 H   0  0  0  0  0  0  0  0  0  0  0  0
    3.0027    1.1263    2.3906 H   0  0  0  0  0  0  0  0  0  0  0  0
    4.4471    0.7272    1.4757 H   0  0  0  0  0  0  0  0  0  0  0  0
    4.2802    0.1867    3.1169 H   0  0  0  0  0  0  0  0  0  0  0  0
    5.6680   -3.0537    1.4028 H   0  0  0  0  0  0  0  0  0  0  0  0
    5.6256   -1.7346    2.5413 H   0  0  0  0  0  0  0  0  0  0  0  0
    8.4704    1.1515    0.2653 H   0  0  0  0  0  0  0  0  0  0  0  0
    7.6232    1.2564   -2.0106 H   0  0  0  0  0  0  0  0  0  0  0  0
    5.7581   -0.1552   -2.6725 H   0  0  0  0  0  0  0  0  0  0  0  0
    4.7462   -1.6655   -1.0653 H   0  0  0  0  0  0  0  0  0  0  0  0
  1  2  1  0
  2  3  2  0
  2  7  1  0
  7  6  2  0
  6  5  1  0
  5  4  2  0
  4  3  1  0
  8  9  2  0
  8 13  1  0
 13 12  2  0
 12 11  1  0
 11 10  2  0
 10  9  1  0
  1  8  1  0
  1 14  1  0
 14 15  1  0
 16 17  1  0
 16 21  1  0
 21 20  1  0
 20 19  1  0
 19 18  1  0
 18 17  1  0
 15 16  1  0
 19 22  1  0
 22 23  1  0
 29 24  1  0
 22 25  1  0
 25 26  2  0
 25 27  1  0
 29 28  2  0
 28 33  1  0
 33 32  2  0
 32 31  1  0
 31 30  2  0
 30 29  1  0
 27 28  1  0
  1 34  1  0
  3 35  1  0
  4 36  1  0
  5 37  1  0
  6 38  1  0
  7 39  1  0
  9 40  1  0
 10 41  1  0
 11 42  1  0
 12 43  1  0
 13 44  1  0
 14 45  1  0
 14 46  1  0
 15 47  1  0
 15 48  1  0
 16 49  1  6
 17 50  1  0
 17 51  1  0
 18 52  1  0
 18 53  1  0
 19 54  1  1
 20 55  1  0
 20 56  1  0
 21 57  1  0
 21 58  1  0
 23 59  1  0
 23 60  1  0
 23 61  1  0
 27 62  1  0
 27 63  1  0
 30 64  1  0
 31 65  1  0
 32 66  1  0
 33 67  1  0
M  CHG  1  16   1
M  END
>  <_TriposChargeType>  (61) 
GASTEIGER

>  <Activity>  (61) 
5.72

$$$$
CCR5_52
     RDKit          3D

 76 79  0  0  0  0  0  0  0  0999 V2000
   -4.0287    1.4274   -1.5107 C   0  0  0  0  0  0  0  0  0  0  0  0
   -4.4142    2.6659   -0.6720 C   0  0  0  0  0  0  0  0  0  0  0  0
   -5.7357    3.1219   -0.7662 C   0  0  0  0  0  0  0  0  0  0  0  0
   -6.1778    4.2157   -0.0170 C   0  0  0  0  0  0  0  0  0  0  0  0
   -5.2926    4.8804    0.8343 C   0  0  0  0  0  0  0  0  0  0  0  0
   -3.9668    4.4501    0.9214 C   0  0  0  0  0  0  0  0  0  0  0  0
   -3.5283    3.3575    0.1669 C   0  0  0  0  0  0  0  0  0  0  0  0
   -5.0267    0.2739   -1.2997 C   0  0  0  0  0  0  0  0  0  0  0  0
   -5.6441    0.0695   -0.0591 C   0  0  0  0  0  0  0  0  0  0  0  0
   -6.5538   -0.9770    0.1170 C   0  0  0  0  0  0  0  0  0  0  0  0
   -6.8521   -1.8321   -0.9469 C   0  0  0  0  0  0  0  0  0  0  0  0
   -6.2361   -1.6382   -2.1860 C   0  0  0  0  0  0  0  0  0  0  0  0
   -5.3265   -0.5909   -2.3591 C   0  0  0  0  0  0  0  0  0  0  0  0
   -2.5838    0.8744   -1.3339 C   0  0  0  0  0  0  0  0  0  0  0  0
   -2.3628    0.1662    0.0331 C   0  0  0  0  0  0  0  0  0  0  0  0
   -0.9277    0.0837    0.4158 N   0  0  2  0  0  4  0  0  0  0  0  0
   -0.0535   -0.6613   -0.5265 C   0  0  0  0  0  0  0  0  0  0  0  0
    1.4392   -0.4718   -0.1489 C   0  0  0  0  0  0  0  0  0  0  0  0
    1.6892   -0.9151    1.3134 C   0  0  2  0  0  0  0  0  0  0  0  0
    0.7369   -0.1369    2.2574 C   0  0  0  0  0  0  0  0  0  0  0  0
   -0.7359   -0.3482    1.8251 C   0  0  0  0  0  0  0  0  0  0  0  0
    3.1069   -0.7599    1.6960 N   0  0  0  0  0  0  0  0  0  0  0  0
    3.7438    0.5608    1.7775 C   0  0  0  0  0  0  0  0  0  0  0  0
    4.8641    0.6346    0.7671 C   0  0  0  0  0  0  0  0  0  0  0  0
    3.8554   -1.8815    1.9216 C   0  0  0  0  0  0  0  0  0  0  0  0
    3.3864   -2.9839    1.6929 O   0  0  0  0  0  0  0  0  0  0  0  0
    6.0738    1.1366    1.0445 C   0  0  0  0  0  0  0  0  0  0  0  0
    6.6783   -3.1595    1.1487 C   0  0  0  0  0  0  0  0  0  0  0  0
    7.7828   -2.3384    0.8955 C   0  0  0  0  0  0  0  0  0  0  0  0
    8.4805   -2.4302   -0.3137 C   0  0  0  0  0  0  0  0  0  0  0  0
    8.0706   -3.3628   -1.2729 C   0  0  0  0  0  0  0  0  0  0  0  0
    6.9619   -4.1788   -1.0309 C   0  0  0  0  0  0  0  0  0  0  0  0
    6.2623   -4.0729    0.1743 C   0  0  0  0  0  0  0  0  0  0  0  0
    5.1245   -1.8275    2.3971 N   0  0  0  0  0  0  0  0  0  0  0  0
    5.9365   -3.0405    2.4852 C   0  0  0  0  0  0  0  0  0  0  0  0
    9.6804   -1.5110   -0.5724 C   0  0  0  0  0  0  0  0  0  0  0  0
   -4.0667    1.8082   -2.5099 H   0  0  0  0  0  0  0  0  0  0  0  0
   -6.3939    2.6418   -1.3997 H   0  0  0  0  0  0  0  0  0  0  0  0
   -7.1573    4.5318   -0.0928 H   0  0  0  0  0  0  0  0  0  0  0  0
   -5.6159    5.6841    1.3952 H   0  0  0  0  0  0  0  0  0  0  0  0
   -3.3076    4.9409    1.5456 H   0  0  0  0  0  0  0  0  0  0  0  0
   -2.5429    3.0570    0.2280 H   0  0  0  0  0  0  0  0  0  0  0  0
   -5.4256    0.6964    0.7310 H   0  0  0  0  0  0  0  0  0  0  0  0
   -7.0057   -1.1182    1.0340 H   0  0  0  0  0  0  0  0  0  0  0  0
   -7.5249   -2.6040   -0.8181 H   0  0  0  0  0  0  0  0  0  0  0  0
   -6.4528   -2.2685   -2.9739 H   0  0  0  0  0  0  0  0  0  0  0  0
   -4.8721   -0.4541   -3.2755 H   0  0  0  0  0  0  0  0  0  0  0  0
   -1.8783    1.6713   -1.4437 H   0  0  0  0  0  0  0  0  0  0  0  0
   -2.4388    0.1352   -2.0939 H   0  0  0  0  0  0  0  0  0  0  0  0
   -2.7842   -0.8168    0.0016 H   0  0  0  0  0  0  0  0  0  0  0  0
   -2.8528    0.7590    0.7770 H   0  0  0  0  0  0  0  0  0  0  0  0
   -0.6039    1.0481    0.3417 H   0  0  0  0  0  0  0  0  0  0  0  0
   -0.2242   -0.3268   -1.5284 H   0  0  0  0  0  0  0  0  0  0  0  0
   -0.2917   -1.7024   -0.4612 H   0  0  0  0  0  0  0  0  0  0  0  0
    2.0607   -1.0337   -0.8144 H   0  0  0  0  0  0  0  0  0  0  0  0
    1.6837    0.5662   -0.2368 H   0  0  0  0  0  0  0  0  0  0  0  0
    1.4737   -1.9593    1.4027 H   0  0  0  0  0  0  0  0  0  0  0  0
    0.8742   -0.4610    3.2678 H   0  0  0  0  0  0  0  0  0  0  0  0
    0.9674    0.9061    2.1949 H   0  0  0  0  0  0  0  0  0  0  0  0
   -1.0074   -1.3774    1.9346 H   0  0  0  0  0  0  0  0  0  0  0  0
   -1.3660    0.2454    2.4540 H   0  0  0  0  0  0  0  0  0  0  0  0
    3.0253    1.3317    1.5924 H   0  0  0  0  0  0  0  0  0  0  0  0
    4.1419    0.7032    2.7604 H   0  0  0  0  0  0  0  0  0  0  0  0
    4.6880    0.2799   -0.1859 H   0  0  0  0  0  0  0  0  0  0  0  0
    6.2781    1.4984    1.9891 H   0  0  0  0  0  0  0  0  0  0  0  0
    6.8020    1.1617    0.3137 H   0  0  0  0  0  0  0  0  0  0  0  0
    8.0862   -1.6573    1.6090 H   0  0  0  0  0  0  0  0  0  0  0  0
    8.5883   -3.4484   -2.1615 H   0  0  0  0  0  0  0  0  0  0  0  0
    6.6593   -4.8610   -1.7437 H   0  0  0  0  0  0  0  0  0  0  0  0
    5.4377   -4.6693    0.3456 H   0  0  0  0  0  0  0  0  0  0  0  0
    5.5019   -0.9650    2.6851 H   0  0  0  0  0  0  0  0  0  0  0  0
    5.3210   -3.8988    2.6565 H   0  0  0  0  0  0  0  0  0  0  0  0
    6.6228   -2.9871    3.3044 H   0  0  0  0  0  0  0  0  0  0  0  0
   10.0878   -1.7191   -1.5397 H   0  0  0  0  0  0  0  0  0  0  0  0
   10.4257   -1.6536    0.1820 H   0  0  0  0  0  0  0  0  0  0  0  0
    9.3563   -0.4918   -0.5391 H   0  0  0  0  0  0  0  0  0  0  0  0
  1  2  1  0
  2  3  2  0
  2  7  1  0
  7  6  2  0
  6  5  1  0
  5  4  2  0
  4  3  1  0
  8  9  2  0
  8 13  1  0
 13 12  2  0
 12 11  1  0
 11 10  2  0
 10  9  1  0
  1  8  1  0
  1 14  1  0
 14 15  1  0
 16 17  1  0
 16 21  1  0
 21 20  1  0
 20 19  1  0
 19 18  1  0
 18 17  1  0
 16 15  1  0
 19 22  1  0
 23 24  1  0
 24 27  2  0
 22 25  1  0
 25 26  2  0
 22 23  1  0
 28 29  2  0
 28 33  1  0
 33 32  2  0
 32 31  1  0
 31 30  2  0
 30 29  1  0
 25 34  1  0
 34 35  1  0
 28 35  1  0
 30 36  1  0
  1 37  1  0
  3 38  1  0
  4 39  1  0
  5 40  1  0
  6 41  1  0
  7 42  1  0
  9 43  1  0
 10 44  1  0
 11 45  1  0
 12 46  1  0
 13 47  1  0
 14 48  1  0
 14 49  1  0
 15 50  1  0
 15 51  1  0
 16 52  1  1
 17 53  1  0
 17 54  1  0
 18 55  1  0
 18 56  1  0
 19 57  1  6
 20 58  1  0
 20 59  1  0
 21 60  1  0
 21 61  1  0
 23 62  1  0
 23 63  1  0
 24 64  1  0
 27 65  1  0
 27 66  1  0
 29 67  1  0
 31 68  1  0
 32 69  1  0
 33 70  1  0
 34 71  1  0
 35 72  1  0
 35 73  1  0
 36 74  1  0
 36 75  1  0
 36 76  1  0
M  CHG  1  16   1
M  END
>  <_TriposChargeType>  (62) 
GASTEIGER

>  <Activity>  (62) 
6.62

$$$$
CCR5_16
     RDKit          3D

 75 78  0  0  0  0  0  0  0  0999 V2000
   -3.9947    1.4293   -1.5028 C   0  0  0  0  0  0  0  0  0  0  0  0
   -4.4329    2.6792   -0.7081 C   0  0  0  0  0  0  0  0  0  0  0  0
   -5.7745    3.0714   -0.8060 C   0  0  0  0  0  0  0  0  0  0  0  0
   -6.2631    4.1623   -0.0817 C   0  0  0  0  0  0  0  0  0  0  0  0
   -5.4044    4.8916    0.7433 C   0  0  0  0  0  0  0  0  0  0  0  0
   -4.0574    4.5314    0.8253 C   0  0  0  0  0  0  0  0  0  0  0  0
   -3.5726    3.4422    0.0945 C   0  0  0  0  0  0  0  0  0  0  0  0
   -4.9739    0.2587   -1.2987 C   0  0  0  0  0  0  0  0  0  0  0  0
   -5.6029    0.0511   -0.0647 C   0  0  0  0  0  0  0  0  0  0  0  0
   -6.4940   -1.0120    0.1073 C   0  0  0  0  0  0  0  0  0  0  0  0
   -6.7610   -1.8806   -0.9540 C   0  0  0  0  0  0  0  0  0  0  0  0
   -6.1335   -1.6831   -2.1866 C   0  0  0  0  0  0  0  0  0  0  0  0
   -5.2432   -0.6188   -2.3559 C   0  0  0  0  0  0  0  0  0  0  0  0
   -2.5492    0.9030   -1.2621 C   0  0  0  0  0  0  0  0  0  0  0  0
   -2.3495    0.2767    0.1474 C   0  0  0  0  0  0  0  0  0  0  0  0
   -0.9108    0.1784    0.5140 N   0  0  2  0  0  4  0  0  0  0  0  0
   -0.1268   -0.7899   -0.2936 C   0  0  0  0  0  0  0  0  0  0  0  0
    1.3876   -0.6899    0.0216 C   0  0  0  0  0  0  0  0  0  0  0  0
    1.6545   -0.8950    1.5337 C   0  0  2  0  0  0  0  0  0  0  0  0
    0.8175    0.1585    2.3054 C   0  0  0  0  0  0  0  0  0  0  0  0
   -0.6874    0.0035    1.9717 C   0  0  0  0  0  0  0  0  0  0  0  0
    3.1115   -0.8675    1.7535 N   0  0  0  0  0  0  0  0  0  0  0  0
    3.8247    0.3465    2.1744 C   0  0  0  0  0  0  0  0  0  0  0  0
    7.5413    1.9951   -1.9897 O   0  0  0  0  0  0  0  0  0  0  0  0
    3.8103   -1.9888    1.4093 C   0  0  0  0  0  0  0  0  0  0  0  0
    3.2364   -3.0078    1.0588 O   0  0  0  0  0  0  0  0  0  0  0  0
    5.3201   -2.0615    1.4154 C   0  0  0  0  0  0  0  0  0  0  0  0
    5.9264   -0.9791    0.5114 C   0  0  0  0  0  0  0  0  0  0  0  0
    7.0055   -0.1994    0.9423 C   0  0  0  0  0  0  0  0  0  0  0  0
    7.5356    0.7965    0.1173 C   0  0  0  0  0  0  0  0  0  0  0  0
    6.9958    1.0142   -1.1553 C   0  0  0  0  0  0  0  0  0  0  0  0
    5.9062    0.2488   -1.5817 C   0  0  0  0  0  0  0  0  0  0  0  0
    5.3909   -0.7592   -0.7622 C   0  0  0  0  0  0  0  0  0  0  0  0
    8.1491    1.5200   -3.2029 C   0  0  0  0  0  0  0  0  0  0  0  0
    8.6028    1.5739    0.5723 O   0  0  0  0  0  0  0  0  0  0  0  0
    9.8907    0.9609    0.4071 C   0  0  0  0  0  0  0  0  0  0  0  0
   -4.0056    1.7922   -2.5093 H   0  0  0  0  0  0  0  0  0  0  0  0
   -6.4128    2.5457   -1.4235 H   0  0  0  0  0  0  0  0  0  0  0  0
   -7.2574    4.4285   -0.1565 H   0  0  0  0  0  0  0  0  0  0  0  0
   -5.7625    5.6912    1.2887 H   0  0  0  0  0  0  0  0  0  0  0  0
   -3.4170    5.0715    1.4280 H   0  0  0  0  0  0  0  0  0  0  0  0
   -2.5714    3.1974    0.1464 H   0  0  0  0  0  0  0  0  0  0  0  0
   -5.4070    0.6878    0.7235 H   0  0  0  0  0  0  0  0  0  0  0  0
   -6.9552   -1.1555    1.0193 H   0  0  0  0  0  0  0  0  0  0  0  0
   -7.4194   -2.6653   -0.8279 H   0  0  0  0  0  0  0  0  0  0  0  0
   -6.3274   -2.3233   -2.9725 H   0  0  0  0  0  0  0  0  0  0  0  0
   -4.7806   -0.4787   -3.2677 H   0  0  0  0  0  0  0  0  0  0  0  0
   -1.8492    1.6999   -1.4031 H   0  0  0  0  0  0  0  0  0  0  0  0
   -2.3819    0.1220   -1.9741 H   0  0  0  0  0  0  0  0  0  0  0  0
   -2.7994   -0.6935    0.1804 H   0  0  0  0  0  0  0  0  0  0  0  0
   -2.8221    0.9213    0.8587 H   0  0  0  0  0  0  0  0  0  0  0  0
   -0.5357    1.0937    0.2653 H   0  0  0  0  0  0  0  0  0  0  0  0
   -0.2948   -0.6161   -1.3359 H   0  0  0  0  0  0  0  0  0  0  0  0
   -0.4543   -1.7762   -0.0391 H   0  0  0  0  0  0  0  0  0  0  0  0
    1.9285   -1.4171   -0.5473 H   0  0  0  0  0  0  0  0  0  0  0  0
    1.7221    0.2901   -0.2480 H   0  0  0  0  0  0  0  0  0  0  0  0
    1.3378   -1.8450    1.9107 H   0  0  0  0  0  0  0  0  0  0  0  0
    0.9733    0.0520    3.3586 H   0  0  0  0  0  0  0  0  0  0  0  0
    1.1354    1.1347    2.0039 H   0  0  0  0  0  0  0  0  0  0  0  0
   -1.0369   -0.9581    2.2850 H   0  0  0  0  0  0  0  0  0  0  0  0
   -1.2353    0.7581    2.4964 H   0  0  0  0  0  0  0  0  0  0  0  0
    3.1167    1.1155    2.4030 H   0  0  0  0  0  0  0  0  0  0  0  0
    4.4892    0.6725    1.4017 H   0  0  0  0  0  0  0  0  0  0  0  0
    4.4029    0.1297    3.0483 H   0  0  0  0  0  0  0  0  0  0  0  0
    5.6410   -3.0298    1.0925 H   0  0  0  0  0  0  0  0  0  0  0  0
    5.6599   -1.8919    2.4157 H   0  0  0  0  0  0  0  0  0  0  0  0
    7.4131   -0.3610    1.8765 H   0  0  0  0  0  0  0  0  0  0  0  0
    5.4810    0.4288   -2.5047 H   0  0  0  0  0  0  0  0  0  0  0  0
    4.6106   -1.3449   -1.0986 H   0  0  0  0  0  0  0  0  0  0  0  0
    8.5305    2.3500   -3.7602 H   0  0  0  0  0  0  0  0  0  0  0  0
    7.4352    0.9781   -3.7873 H   0  0  0  0  0  0  0  0  0  0  0  0
    8.9554    0.8608   -2.9576 H   0  0  0  0  0  0  0  0  0  0  0  0
   10.6492    1.6178    0.7786 H   0  0  0  0  0  0  0  0  0  0  0  0
   10.0657    0.7390   -0.6249 H   0  0  0  0  0  0  0  0  0  0  0  0
    9.9176    0.0447    0.9592 H   0  0  0  0  0  0  0  0  0  0  0  0
  1  2  1  0
  2  3  2  0
  2  7  1  0
  7  6  2  0
  6  5  1  0
  5  4  2  0
  4  3  1  0
  8  9  2  0
  8 13  1  0
 13 12  2  0
 12 11  1  0
 11 10  2  0
 10  9  1  0
  1  8  1  0
  1 14  1  0
 14 15  1  0
 16 17  1  0
 16 21  1  0
 21 20  1  0
 20 19  1  0
 19 18  1  0
 18 17  1  0
 15 16  1  0
 19 22  1  0
 22 23  1  0
 31 24  1  0
 22 25  1  0
 25 26  2  0
 25 27  1  0
 28 29  2  0
 33 28  1  0
 32 33  2  0
 32 31  1  0
 31 30  2  0
 30 29  1  0
 27 28  1  0
 24 34  1  0
 30 35  1  0
 35 36  1  0
  1 37  1  0
  3 38  1  0
  4 39  1  0
  5 40  1  0
  6 41  1  0
  7 42  1  0
  9 43  1  0
 10 44  1  0
 11 45  1  0
 12 46  1  0
 13 47  1  0
 14 48  1  0
 14 49  1  0
 15 50  1  0
 15 51  1  0
 16 52  1  6
 17 53  1  0
 17 54  1  0
 18 55  1  0
 18 56  1  0
 19 57  1  1
 20 58  1  0
 20 59  1  0
 21 60  1  0
 21 61  1  0
 23 62  1  0
 23 63  1  0
 23 64  1  0
 27 65  1  0
 27 66  1  0
 29 67  1  0
 32 68  1  0
 33 69  1  0
 34 70  1  0
 34 71  1  0
 34 72  1  0
 36 73  1  0
 36 74  1  0
 36 75  1  0
M  CHG  1  16   1
M  END
>  <_TriposChargeType>  (63) 
GASTEIGER

>  <Activity>  (63) 
6.19

$$$$
